
#######################################################################
#
#                 Cambridge Crystallographic Data Centre
#                                CCDC 
#
#######################################################################
#
# If this CIF has been generated directly or indirectly from an entry in the 
# Cambridge Structural Database, then it will include bibliographic, chemical, 
# crystal, experimental, refinement or atomic coordinate data resulting from 
# the CCDC's data processing and validation procedures. Files generated from 
# CSD entries are Copyright 2022 Cambridge Crystallographic Data Centre. They 
# may be used in bona fide research applications only, and may not be copied or 
# further disseminated in any form, whether machine-readable or not, except for 
# the purposes of generating routine backup copies on your local computer 
# system.
# 
# Files arising from any other source may also contain material that is the 
# copyright of third parties, including the originator, and you should check 
# with the originator concerning the permitted uses of the information 
# contained in this CIF.
#
# For further information on the CCDC and the free tools enCIFer and Mercury
# for validating and visualising CIF files, please visit www.ccdc.cam.ac.uk
#
#######################################################################

data_CHINACRIDON_publ
_symmetry_cell_setting           triclinic
_symmetry_space_group_name_H-M   'P -1'
_symmetry_Int_Tables_number      2
loop_
_symmetry_equiv_pos_site_id
_symmetry_equiv_pos_as_xyz
1 x,y,z
2 -x,-y,-z
_cell_length_a                   3.8017(15)
_cell_length_b                   6.6115(32)
_cell_length_c                   14.485(6)
_cell_angle_alpha                100.68(8)
_cell_angle_beta                 94.40(6)
_cell_angle_gamma                102.11(5)
_cell_volume                     347.27
loop_
_atom_site_label
_atom_site_type_symbol
_atom_site_fract_x
_atom_site_fract_y
_atom_site_fract_z
C1 C -0.1801 0.2899 0.00389
C2 C -0.095 0.93844 0.32941
C3 C -0.2214 0.88132 0.40125
C4 C -0.4174 0.67258 0.39547
C5 C -0.4314 0.52042 0.31486
C6 C -0.2718 0.57655 0.24486
C7 C -0.0973 0.78218 0.24905
C8 C 0.0479 0.83258 0.15817
C9 C 0.0258 0.6712 0.0767
C10 C -0.1523 0.46009 0.08064
H12 H 0.0137 1.0795 0.33201
H13 H -0.2016 0.9878 0.46162
H14 H -0.525 0.631 0.4523
H15 H -0.5273 0.3772 0.31664
H16 H -0.415 0.2832 0.16182
H17 H -0.3004 0.1535 0.00789
N18 N -0.3104 0.41632 0.16158
O19 O 0.216 1.0388 0.16011
C1 C 0.1801 0.7101 -0.00389
C2 C 0.095 0.06156 -0.32941
C3 C 0.2214 0.11868 -0.40125
C4 C 0.4174 0.32742 -0.39547
C5 C 0.4314 0.47958 -0.31486
C6 C 0.2718 0.42345 -0.24486
C7 C 0.0973 0.21782 -0.24905
C8 C -0.0479 0.16742 -0.15817
C9 C -0.0258 0.3288 -0.0767
C10 C 0.1523 0.53991 -0.08064
H12 H -0.0137 -0.0795 -0.33201
H13 H 0.2016 0.0122 -0.46162
H14 H 0.525 0.369 -0.4523
H15 H 0.5273 0.6228 -0.31664
H16 H 0.415 0.7168 -0.16182
H17 H 0.3004 0.8465 -0.00789
N18 N 0.3104 0.58368 -0.16158
O19 O -0.216 -0.0388 -0.16011
C1 C -0.1801 0.2899 1.00389
C2 C -0.095 0.93844 1.32941
C3 C -0.2214 0.88132 1.40125
C4 C -0.4174 0.67258 1.39547
C5 C -0.4314 0.52042 1.31486
C6 C -0.2718 0.57655 1.24486
C7 C -0.0973 0.78218 1.24905
C8 C 0.0479 0.83258 1.15817
C9 C 0.0258 0.6712 1.0767
C10 C -0.1523 0.46009 1.08064
H12 H 0.0137 1.0795 1.33201
H13 H -0.2016 0.9878 1.46162
H14 H -0.525 0.631 1.4523
H15 H -0.5273 0.3772 1.31664
H16 H -0.415 0.2832 1.16182
H17 H -0.3004 0.1535 1.00789
N18 N -0.3104 0.41632 1.16158
O19 O 0.216 1.0388 1.16011
C1 C 0.1801 0.7101 0.99611
C2 C 0.095 0.06156 0.67059
C3 C 0.2214 0.11868 0.59875
C4 C 0.4174 0.32742 0.60453
C5 C 0.4314 0.47958 0.68514
C6 C 0.2718 0.42345 0.75514
C7 C 0.0973 0.21782 0.75095
C8 C -0.0479 0.16742 0.84183
C9 C -0.0258 0.3288 0.9233
C10 C 0.1523 0.53991 0.91936
H12 H -0.0137 -0.0795 0.66799
H13 H 0.2016 0.0122 0.53838
H14 H 0.525 0.369 0.5477
H15 H 0.5273 0.6228 0.68336
H16 H 0.415 0.7168 0.83818
H17 H 0.3004 0.8465 0.99211
N18 N 0.3104 0.58368 0.83842
O19 O -0.216 -0.0388 0.83989
C1 C 0.8199 0.2899 0.00389
C2 C 0.905 0.93844 0.32941
C3 C 0.7786 0.88132 0.40125
C4 C 0.5826 0.67258 0.39547
C5 C 0.5686 0.52042 0.31486
C6 C 0.7282 0.57655 0.24486
C7 C 0.9027 0.78218 0.24905
C8 C 1.0479 0.83258 0.15817
C9 C 1.0258 0.6712 0.0767
C10 C 0.8477 0.46009 0.08064
H12 H 1.0137 1.0795 0.33201
H13 H 0.7984 0.9878 0.46162
H14 H 0.475 0.631 0.4523
H15 H 0.4727 0.3772 0.31664
H16 H 0.585 0.2832 0.16182
H17 H 0.6996 0.1535 0.00789
N18 N 0.6896 0.41632 0.16158
O19 O 1.216 1.0388 0.16011
C1 C 1.1801 0.7101 -0.00389
C2 C 1.095 0.06156 -0.32941
C3 C 1.2214 0.11868 -0.40125
C4 C 1.4174 0.32742 -0.39547
C5 C 1.4314 0.47958 -0.31486
C6 C 1.2718 0.42345 -0.24486
C7 C 1.0973 0.21782 -0.24905
C8 C 0.9521 0.16742 -0.15817
C9 C 0.9742 0.3288 -0.0767
C10 C 1.1523 0.53991 -0.08064
H12 H 0.9863 -0.0795 -0.33201
H13 H 1.2016 0.0122 -0.46162
H14 H 1.525 0.369 -0.4523
H15 H 1.5273 0.6228 -0.31664
H16 H 1.415 0.7168 -0.16182
H17 H 1.3004 0.8465 -0.00789
N18 N 1.3104 0.58368 -0.16158
O19 O 0.784 -0.0388 -0.16011
C1 C 0.8199 0.2899 1.00389
C2 C 0.905 0.93844 1.32941
C3 C 0.7786 0.88132 1.40125
C4 C 0.5826 0.67258 1.39547
C5 C 0.5686 0.52042 1.31486
C6 C 0.7282 0.57655 1.24486
C7 C 0.9027 0.78218 1.24905
C8 C 1.0479 0.83258 1.15817
C9 C 1.0258 0.6712 1.0767
C10 C 0.8477 0.46009 1.08064
H12 H 1.0137 1.0795 1.33201
H13 H 0.7984 0.9878 1.46162
H14 H 0.475 0.631 1.4523
H15 H 0.4727 0.3772 1.31664
H16 H 0.585 0.2832 1.16182
H17 H 0.6996 0.1535 1.00789
N18 N 0.6896 0.41632 1.16158
O19 O 1.216 1.0388 1.16011
C1 C 1.1801 0.7101 0.99611
C2 C 1.095 0.06156 0.67059
C3 C 1.2214 0.11868 0.59875
C4 C 1.4174 0.32742 0.60453
C5 C 1.4314 0.47958 0.68514
C6 C 1.2718 0.42345 0.75514
C7 C 1.0973 0.21782 0.75095
C8 C 0.9521 0.16742 0.84183
C9 C 0.9742 0.3288 0.9233
C10 C 1.1523 0.53991 0.91936
H12 H 0.9863 -0.0795 0.66799
H13 H 1.2016 0.0122 0.53838
H14 H 1.525 0.369 0.5477
H15 H 1.5273 0.6228 0.68336
H16 H 1.415 0.7168 0.83818
H17 H 1.3004 0.8465 0.99211
N18 N 1.3104 0.58368 0.83842
O19 O 0.784 -0.0388 0.83989

#END
