
#######################################################################
#
#                 Cambridge Crystallographic Data Centre
#                                CCDC 
#
#######################################################################
#
# If this CIF has been generated directly or indirectly from an entry in the 
# Cambridge Structural Database, then it will include bibliographic, chemical, 
# crystal, experimental, refinement or atomic coordinate data resulting from 
# the CCDC's data processing and validation procedures. Files generated from 
# CSD entries are Copyright 2022 Cambridge Crystallographic Data Centre. They 
# may be used in bona fide research applications only, and may not be copied or 
# further disseminated in any form, whether machine-readable or not, except for 
# the purposes of generating routine backup copies on your local computer 
# system.
# 
# Files arising from any other source may also contain material that is the 
# copyright of third parties, including the originator, and you should check 
# with the originator concerning the permitted uses of the information 
# contained in this CIF.
#
# For further information on the CCDC and the free tools enCIFer and Mercury
# for validating and visualising CIF files, please visit www.ccdc.cam.ac.uk
#
#######################################################################

data_0231
_symmetry_cell_setting           monoclinic
_symmetry_space_group_name_H-M   'P 21/c'
_symmetry_Int_Tables_number      14
loop_
_symmetry_equiv_pos_site_id
_symmetry_equiv_pos_as_xyz
1 x,y,z
2 x,1/2-y,1/2+z
3 -x,-y,-z
4 -x,1/2+y,1/2-z
_cell_length_a                   5.692(1)
_cell_length_b                   3.975(1)
_cell_length_c                   30.02(4)
_cell_angle_alpha                90.00
_cell_angle_beta                 96.76(6)
_cell_angle_gamma                90.00
_cell_volume                     674.502
loop_
_atom_site_label
_atom_site_type_symbol
_atom_site_fract_x
_atom_site_fract_y
_atom_site_fract_z
O1 O 0.203 0.4159 0.08727
N1 N 0.79 -0.1576 0.07783
H1 H 0.9147 -0.2762 0.0758
C01 C 0.4916 0.221 0.1677
H01 H 0.358 0.3469 0.1717
C02 C 0.642 0.125 0.2043
H02 H 0.6062 0.1754 0.233
C03 C 0.8501 -0.05 0.1986
H03 H 0.956 -0.103 0.2236
C04 C 0.9001 -0.143 0.1572
H04 H 1.0386 -0.2599 0.1539
C05 C 0.743 -0.062 0.1197
C06 C 0.5353 0.133 0.1242
C07 C 0.6497 -0.076 0.0385
C08 C 0.4406 0.11 0.0414
C09 C 0.3805 0.228 0.0847
C10 C 0.2955 0.181 0.0021
H10 H 0.1573 0.3033 0.0036
O1 O 0.797 -0.4159 -0.08727
N1 N 0.21 0.1576 -0.07783
H1 H 0.0853 0.2762 -0.0758
C01 C 0.5084 -0.221 -0.1677
H01 H 0.642 -0.3469 -0.1717
C02 C 0.358 -0.125 -0.2043
H02 H 0.3938 -0.1754 -0.233
C03 C 0.1499 0.05 -0.1986
H03 H 0.044 0.103 -0.2236
C04 C 0.0999 0.143 -0.1572
H04 H -0.0386 0.2599 -0.1539
C05 C 0.257 0.062 -0.1197
C06 C 0.4647 -0.133 -0.1242
C07 C 0.3503 0.076 -0.0385
C08 C 0.5594 -0.11 -0.0414
C09 C 0.6195 -0.228 -0.0847
C10 C 0.7045 -0.181 -0.0021
H10 H 0.8427 -0.3033 -0.0036
O1 O 0.203 0.4159 1.08727
N1 N 0.79 -0.1576 1.07783
H1 H 0.9147 -0.2762 1.0758
C01 C 0.4916 0.221 1.1677
H01 H 0.358 0.3469 1.1717
C02 C 0.642 0.125 1.2043
H02 H 0.6062 0.1754 1.233
C03 C 0.8501 -0.05 1.1986
H03 H 0.956 -0.103 1.2236
C04 C 0.9001 -0.143 1.1572
H04 H 1.0386 -0.2599 1.1539
C05 C 0.743 -0.062 1.1197
C06 C 0.5353 0.133 1.1242
C07 C 0.6497 -0.076 1.0385
C08 C 0.4406 0.11 1.0414
C09 C 0.3805 0.228 1.0847
C10 C 0.2955 0.181 1.0021
H10 H 0.1573 0.3033 1.0036
O1 O 0.797 -0.4159 0.91273
N1 N 0.21 0.1576 0.92217
H1 H 0.0853 0.2762 0.9242
C01 C 0.5084 -0.221 0.8323
H01 H 0.642 -0.3469 0.8283
C02 C 0.358 -0.125 0.7957
H02 H 0.3938 -0.1754 0.767
C03 C 0.1499 0.05 0.8014
H03 H 0.044 0.103 0.7764
C04 C 0.0999 0.143 0.8428
H04 H -0.0386 0.2599 0.8461
C05 C 0.257 0.062 0.8803
C06 C 0.4647 -0.133 0.8758
C07 C 0.3503 0.076 0.9615
C08 C 0.5594 -0.11 0.9586
C09 C 0.6195 -0.228 0.9153
C10 C 0.7045 -0.181 0.9979
H10 H 0.8427 -0.3033 0.9964
O1 O 0.203 1.4159 0.08727
N1 N 0.79 0.8424 0.07783
H1 H 0.9147 0.7238 0.0758
C01 C 0.4916 1.221 0.1677
H01 H 0.358 1.3469 0.1717
C02 C 0.642 1.125 0.2043
H02 H 0.6062 1.1754 0.233
C03 C 0.8501 0.95 0.1986
H03 H 0.956 0.897 0.2236
C04 C 0.9001 0.857 0.1572
H04 H 1.0386 0.7401 0.1539
C05 C 0.743 0.938 0.1197
C06 C 0.5353 1.133 0.1242
C07 C 0.6497 0.924 0.0385
C08 C 0.4406 1.11 0.0414
C09 C 0.3805 1.228 0.0847
C10 C 0.2955 1.181 0.0021
H10 H 0.1573 1.3033 0.0036
O1 O 0.797 0.5841 -0.08727
N1 N 0.21 1.1576 -0.07783
H1 H 0.0853 1.2762 -0.0758
C01 C 0.5084 0.779 -0.1677
H01 H 0.642 0.6531 -0.1717
C02 C 0.358 0.875 -0.2043
H02 H 0.3938 0.8246 -0.233
C03 C 0.1499 1.05 -0.1986
H03 H 0.044 1.103 -0.2236
C04 C 0.0999 1.143 -0.1572
H04 H -0.0386 1.2599 -0.1539
C05 C 0.257 1.062 -0.1197
C06 C 0.4647 0.867 -0.1242
C07 C 0.3503 1.076 -0.0385
C08 C 0.5594 0.89 -0.0414
C09 C 0.6195 0.772 -0.0847
C10 C 0.7045 0.819 -0.0021
H10 H 0.8427 0.6967 -0.0036
O1 O 0.203 1.4159 1.08727
N1 N 0.79 0.8424 1.07783
H1 H 0.9147 0.7238 1.0758
C01 C 0.4916 1.221 1.1677
H01 H 0.358 1.3469 1.1717
C02 C 0.642 1.125 1.2043
H02 H 0.6062 1.1754 1.233
C03 C 0.8501 0.95 1.1986
H03 H 0.956 0.897 1.2236
C04 C 0.9001 0.857 1.1572
H04 H 1.0386 0.7401 1.1539
C05 C 0.743 0.938 1.1197
C06 C 0.5353 1.133 1.1242
C07 C 0.6497 0.924 1.0385
C08 C 0.4406 1.11 1.0414
C09 C 0.3805 1.228 1.0847
C10 C 0.2955 1.181 1.0021
H10 H 0.1573 1.3033 1.0036
O1 O 0.797 0.5841 0.91273
N1 N 0.21 1.1576 0.92217
H1 H 0.0853 1.2762 0.9242
C01 C 0.5084 0.779 0.8323
H01 H 0.642 0.6531 0.8283
C02 C 0.358 0.875 0.7957
H02 H 0.3938 0.8246 0.767
C03 C 0.1499 1.05 0.8014
H03 H 0.044 1.103 0.7764
C04 C 0.0999 1.143 0.8428
H04 H -0.0386 1.2599 0.8461
C05 C 0.257 1.062 0.8803
C06 C 0.4647 0.867 0.8758
C07 C 0.3503 1.076 0.9615
C08 C 0.5594 0.89 0.9586
C09 C 0.6195 0.772 0.9153
C10 C 0.7045 0.819 0.9979
H10 H 0.8427 0.6967 0.9964
O1 O 0.203 0.0841 0.58727
N1 N 0.79 0.6576 0.57783
H1 H 0.9147 0.7762 0.5758
C01 C 0.4916 0.279 0.6677
H01 H 0.358 0.1531 0.6717
C02 C 0.642 0.375 0.7043
H02 H 0.6062 0.3246 0.733
C03 C 0.8501 0.55 0.6986
H03 H 0.956 0.603 0.7236
C04 C 0.9001 0.643 0.6572
H04 H 1.0386 0.7599 0.6539
C05 C 0.743 0.562 0.6197
C06 C 0.5353 0.367 0.6242
C07 C 0.6497 0.576 0.5385
C08 C 0.4406 0.39 0.5414
C09 C 0.3805 0.272 0.5847
C10 C 0.2955 0.319 0.5021
H10 H 0.1573 0.1967 0.5036
O1 O 0.797 0.9159 0.41273
N1 N 0.21 0.3424 0.42217
H1 H 0.0853 0.2238 0.4242
C01 C 0.5084 0.721 0.3323
H01 H 0.642 0.8469 0.3283
C02 C 0.358 0.625 0.2957
H02 H 0.3938 0.6754 0.267
C03 C 0.1499 0.45 0.3014
H03 H 0.044 0.397 0.2764
C04 C 0.0999 0.357 0.3428
H04 H -0.0386 0.2401 0.3461
C05 C 0.257 0.438 0.3803
C06 C 0.4647 0.633 0.3758
C07 C 0.3503 0.424 0.4615
C08 C 0.5594 0.61 0.4586
C09 C 0.6195 0.728 0.4153
C10 C 0.7045 0.681 0.4979
H10 H 0.8427 0.8033 0.4964

#END
