data_exp_2054_exp_2052
_audit_creation_date               2023-10-23
_audit_creation_method
;
Olex2 1.5
(compiled 2023.08.24 svn.re1ec1418 for OlexSys, GUI svn.r6817)
;
_shelx_SHELXL_version_number       '2018/3'
_audit_contact_author_address      ?
_audit_contact_author_email        ?
_audit_contact_author_name         ''
_audit_contact_author_phone        ?
_publ_contact_author_id_orcid      ?
_publ_section_references
;
Dolomanov, O.V., Bourhis, L.J., Gildea, R.J, Howard, J.A.K. & Puschmann, H.
 (2009), J. Appl. Cryst. 42, 339-341.

Sheldrick, G.M. (2015). Acta Cryst. A71, 3-8.

Sheldrick, G.M. (2015). Acta Cryst. C71, 3-8.
;
_chemical_name_common              ?
_chemical_name_systematic          ?
_chemical_formula_moiety           'C53 H12 Cl16 N4 O8'
_chemical_formula_sum              'C53 H12 Cl16 N4 O8'
_chemical_formula_weight           1399.95
_chemical_melting_point            ?
_chemical_oxdiff_formula           'c53 h12 Cl16 N4 o8'
loop_
  _atom_type_symbol
  _atom_type_description
  _atom_type_scat_dispersion_real
  _atom_type_scat_dispersion_imag
  _atom_type_scat_source
 'C' 'C' 0.0000 0.0000 'International Tables Vol C Tables 4.2.6.8 and 6.1.1.4'
 'H' 'H' 0.0000 0.0000 'International Tables Vol C Tables 4.2.6.8 and 6.1.1.4'
 'N' 'N' 0.0000 0.0000 'International Tables Vol C Tables 4.2.6.8 and 6.1.1.4'
 'O' 'O' 0.0000 0.0000 'International Tables Vol C Tables 4.2.6.8 and 6.1.1.4'
 'Cl' 'Cl' 0.0000 0.0000 'International Tables Vol C Tables 4.2.6.8 and 6.1.1.4'

_diffrn_oxdiff_scatteringfactors_ed
;
Peng,L.M. (1999) Micron 30, 625-648
;
_shelx_space_group_comment
;
The symmetry employed for this shelxl refinement is uniquely defined
by the following loop, which should always be used as a source of
symmetry information in preference to the above space-group names.
They are only intended as comments.
;
_space_group_crystal_system        'monoclinic'
_space_group_IT_number             15
_space_group_name_H-M_alt          'I 1 2/a 1'
_space_group_name_Hall             '-I 2ya'
loop_
  _space_group_symop_operation_xyz
 'x, y, z'
 '-x+1/2, y, -z'
 'x+1/2, y+1/2, z+1/2'
 '-x+1, y+1/2, -z+1/2'
 '-x, -y, -z'
 'x-1/2, -y, z'
 '-x+1/2, -y+1/2, -z+1/2'
 'x, -y+1/2, z+1/2'

_cell_length_a                     30.5(2)
_cell_length_b                     6.44(7)
_cell_length_c                     28.1(2)
_cell_angle_alpha                  90
_cell_angle_beta                   109.7(5)
_cell_angle_gamma                  90
_cell_volume                       5208(82)
_cell_formula_units_Z              4
_cell_measurement_reflns_used      2191
_cell_measurement_temperature      293(2)
_cell_measurement_theta_max        0.8990
_cell_measurement_theta_min        0.1150
_shelx_estimated_absorpt_T_max     ?
_shelx_estimated_absorpt_T_min     ?
_exptl_absorpt_coefficient_mu      0.000
_exptl_absorpt_correction_T_max    1.00000
_exptl_absorpt_correction_T_min    0.36068
_exptl_absorpt_correction_type     multi-scan
_exptl_absorpt_process_details
;
CrysAlisPro 1.171.43.65a (Rigaku Oxford Diffraction, 2023)
Empirical absorption correction using spherical harmonics,
implemented in SCALE3 ABSPACK scaling algorithm.
;
_exptl_absorpt_special_details     ?
_exptl_crystal_colour              ?
_exptl_crystal_density_diffrn      1.786
_exptl_crystal_density_meas        ?
_exptl_crystal_density_method      ?
_exptl_crystal_description         ?
_exptl_crystal_F_000               967
_exptl_crystal_size_max            ?
_exptl_crystal_size_mid            ?
_exptl_crystal_size_min            ?
_exptl_transmission_factor_max     ?
_exptl_transmission_factor_min     ?
_diffrn_reflns_av_R_equivalents    0.1478
_diffrn_reflns_av_unetI/netI       0.1273
_diffrn_reflns_Laue_measured_fraction_full  0.752
_diffrn_reflns_Laue_measured_fraction_max  0.746
_diffrn_reflns_limit_h_max         38
_diffrn_reflns_limit_h_min         -38
_diffrn_reflns_limit_k_max         8
_diffrn_reflns_limit_k_min         -8
_diffrn_reflns_limit_l_max         34
_diffrn_reflns_limit_l_min         -34
_diffrn_reflns_number              13335
_diffrn_reflns_point_group_measured_fraction_full  0.752
_diffrn_reflns_point_group_measured_fraction_max  0.746
_diffrn_reflns_theta_full          0.863
_diffrn_reflns_theta_max           0.901
_diffrn_reflns_theta_min           0.096
_diffrn_ambient_temperature        293(2)
_diffrn_detector                   'Hybrid Pixel Array Detector'
_diffrn_detector_area_resol_mean   10.0000
_diffrn_detector_type              'HyPix3000 fast'
_diffrn_measured_fraction_theta_full  0.752
_diffrn_measured_fraction_theta_max  0.746
_diffrn_measurement_details
;
List of Runs (angles in degrees, time in seconds):

  # Type    Start    End  Width  t~exp~   \w     \q     \k     \f   Frames
--------------------------------------------------------------------------
  1  \w    -70.00   0.00   0.25    0.50    --    0.00   0.00   0.00  280
  2  \w    -40.00  40.00   0.25    0.50    --    0.00   0.00   0.00  320
;
_diffrn_measurement_device         'electron diffractometer'
_diffrn_measurement_device_type   
 'XtaLAB Synergy-ED, HyPix3000 fast, electron source at 200keV'
_diffrn_measurement_method         '\w scans'
_diffrn_orient_matrix_type        
 'CrysAlisPro convention (1999,Acta A55,543-557)'
_diffrn_orient_matrix_UB_11        -0.0002843000
_diffrn_orient_matrix_UB_12        -0.0004415000
_diffrn_orient_matrix_UB_13        -0.0009412000
_diffrn_orient_matrix_UB_21        0.0006998000
_diffrn_orient_matrix_UB_22        -0.0021786000
_diffrn_orient_matrix_UB_23        0.0000672000
_diffrn_orient_matrix_UB_31        -0.0004387000
_diffrn_orient_matrix_UB_32        -0.0032025000
_diffrn_orient_matrix_UB_33        0.0000816000
_diffrn_radiation_monochromator    'transmission electron microscope'
_diffrn_radiation_probe            electron
_diffrn_radiation_type             'transmission electron microscope'
_diffrn_radiation_wavelength       0.0251
_diffrn_source                     'transmission electron microscope'
_reflns_Friedel_coverage           0.000
_reflns_Friedel_fraction_full      .
_reflns_Friedel_fraction_max       .
_reflns_number_gt                  2918
_reflns_number_total               3992
_reflns_special_details
;
 Reflections were merged by SHELXL according to the crystal
 class for the calculation of statistics and refinement.
 
 _reflns_Friedel_fraction is defined as the number of unique
 Friedel pairs measured divided by the number that would be
 possible theoretically, ignoring centric projections and
 systematic absences.
;
_reflns_threshold_expression       'I > 2\s(I)'
_computing_cell_refinement         'CrysAlisPro 1.171.43.65a (Rigaku OD, 2023)'
_computing_data_collection        
 'CrysAlisPro system (CCD 43.65a 64-bit (release 18-03-2023))'
_computing_data_reduction          'CrysAlisPro 1.171.43.65a (Rigaku OD, 2023)'
_computing_molecular_graphics      'Olex2 1.5 (Dolomanov et al., 2009)'
_computing_publication_material    'Olex2 1.5 (Dolomanov et al., 2009)'
_computing_structure_refinement    'SHELXL 2018/3 (Sheldrick, 2015)'
_computing_structure_solution      'SHELXT 2018/2 (Sheldrick, 2018)'
_refine_diff_density_max           0.202
_refine_diff_density_min           -0.218
_refine_diff_density_rms           0.051
_refine_ls_extinction_coef         .
_refine_ls_extinction_method       none
_refine_ls_goodness_of_fit_ref     2.483
_refine_ls_hydrogen_treatment      constr
_refine_ls_matrix_type             full
_refine_ls_number_parameters       366
_refine_ls_number_reflns           3992
_refine_ls_number_restraints       405
_refine_ls_R_factor_all            0.2382
_refine_ls_R_factor_gt             0.1999
_refine_ls_restrained_S_all        2.369
_refine_ls_shift/su_max            0.001
_refine_ls_shift/su_mean           0.000
_refine_ls_structure_factor_coef   Fsqd
_refine_ls_weighting_details      
 'w=1/[\s^2^(Fo^2^)+(0.1000P)^2^] where P=(Fo^2^+2Fc^2^)/3'
_refine_ls_weighting_scheme        calc
_refine_ls_wR_factor_gt            0.4389
_refine_ls_wR_factor_ref           0.4574
_refine_special_details            ?
_olex2_refinement_description
;
1. Fixed Uiso
 At 1.2 times of:
  All C(H) groups, All C(H,H) groups, All N(H) groups
2. Uiso/Uaniso restraints and constraints
C5 \\sim C9 \\sim C4 \\sim C7 \\sim C8: within 2A with sigma of 0.04 and sigma
for terminal atoms of 0.08 within 2A
C18 \\sim C17 \\sim C12 \\sim C16 \\sim C19 \\sim C20: within 2A with sigma of
0.03 and sigma for terminal atoms of 0.06 within 2A
Cl42 \\sim Cl41 \\sim Cl40 \\sim C23 \\sim C31 \\sim C26 \\sim C29 \\sim C25
\\sim C27 \\sim O38 \\sim N22 \\sim O43 \\sim C30 \\sim C28 \\sim Cl39: within
2A with sigma of 0.02 and sigma for terminal atoms of 0.04 within 2A
C3 \\sim C5 \\sim C9 \\sim C6 \\sim C4 \\sim C1 \\sim O36 \\sim C7 \\sim C8
\\sim C2: within 2A with sigma of 0.03 and sigma for terminal atoms of 0.06
within 2A
3. Rigid body (RIGU) restrains
 C5, C9, C4, C7, C8
 with sigma for 1-2 distances of 0.004 and sigma for 1-3 distances of 0.004
 C18, C17, C12, C16, C19, C20
 with sigma for 1-2 distances of 0.002 and sigma for 1-3 distances of 0.002
 Cl40, C23, C26, C29, C25, C27, O38, C30, C28, Cl42, O43, H14, Cl39, Cl41, C31
 with sigma for 1-2 distances of 0.002 and sigma for 1-3 distances of 0.002
 C3, C5, C9, C6, C4, C1, C7, C8, C2
 with sigma for 1-2 distances of 0.003 and sigma for 1-3 distances of 0.003
4. Others
 Fixed Sof: H21A(0.5) H21B(0.5)
5.a Secondary CH2 refined with riding coordinates:
 C21(H21A,H21B)
5.b Aromatic/amide H refined with riding coordinates:
 N11(H11), C14(H14), C17(H17), C15(H15), C16(H16)
;
_atom_sites_solution_hydrogens     geom
_atom_sites_solution_primary       dual
_atom_sites_solution_secondary     ?
loop_
  _atom_site_label
  _atom_site_type_symbol
  _atom_site_fract_x
  _atom_site_fract_y
  _atom_site_fract_z
  _atom_site_U_iso_or_equiv
  _atom_site_adp_type
  _atom_site_occupancy
  _atom_site_site_symmetry_order
  _atom_site_calc_flag
  _atom_site_refinement_flags_posn
  _atom_site_refinement_flags_adp
  _atom_site_refinement_flags_occupancy
  _atom_site_disorder_assembly
  _atom_site_disorder_group
 Cl39 Cl 0.56269(19) 1.3321(7) 0.3626(3) 0.042(2) Uani 1 1 d . U . . .
 Cl37 Cl 0.8029(2) -0.2694(6) 0.2437(3) 0.043(2) Uani 1 1 d . . . . .
 Cl34 Cl 0.96859(18) 0.3568(8) 0.3242(3) 0.039(2) Uani 1 1 d . . . . .
 Cl42 Cl 0.59119(19) 0.5282(7) 0.4955(4) 0.043(2) Uani 1 1 d . U . . .
 Cl41 Cl 0.49527(19) 0.7544(8) 0.4600(4) 0.046(2) Uani 1 1 d . U . . .
 Cl40 Cl 0.48141(18) 1.1679(7) 0.3971(3) 0.040(2) Uani 1 1 d . U . . .
 Cl33 Cl 0.9771(2) -0.0285(7) 0.2611(4) 0.047(3) Uani 1 1 d . . . . .
 Cl32 Cl 0.8928(2) -0.3284(8) 0.2162(4) 0.055(3) Uani 1 1 d . . . . .
 C23 C 0.6570(3) 1.0531(11) 0.4059(6) 0.020(3) Uani 1 1 d . U . . .
 C18 C 0.7654(3) 1.0637(11) 0.4643(6) 0.020(3) Uani 1 1 d . U . . .
 C31 C 0.5825(3) 0.7461(13) 0.4575(6) 0.026(3) Uani 1 1 d . U . . .
 C26 C 0.6668(4) 0.7542(11) 0.4544(6) 0.025(3) Uani 1 1 d . U . . .
 C29 C 0.5335(3) 1.0338(12) 0.4134(7) 0.029(3) Uani 1 1 d . U . . .
 C3 C 0.9232(4) 0.1887(14) 0.3022(6) 0.027(3) Uani 1 1 d . U . . .
 C25 C 0.6182(4) 0.8240(12) 0.4425(6) 0.027(3) Uani 1 1 d . U . . .
 N11 N 0.8181(3) 0.6514(11) 0.3831(5) 0.024(3) Uani 1 1 d . . . . .
 H11 H 0.852188 0.675316 0.383368 0.029 Uiso 1 1 calc R U . . .
 C27 C 0.6115(3) 1.0026(12) 0.4144(6) 0.026(3) Uani 1 1 d . U . . .
 O38 O 0.6650(3) 1.1932(12) 0.3814(6) 0.039(4) Uani 1 1 d . U . . .
 N22 N 0.6873(3) 0.8953(11) 0.4304(5) 0.026(3) Uani 1 1 d . U . . .
 C21 C 0.750000 1.1921(18) 0.500000 0.039(7) Uani 1 2 d S T P . .
 H21A H 0.722405 1.288214 0.479217 0.046 Uiso 0.5 1 calc R U P . .
 H21B H 0.777597 1.288204 0.520784 0.046 Uiso 0.5 1 calc R U P . .
 C5 C 0.8439(4) 0.0843(12) 0.2923(6) 0.029(3) Uani 1 1 d . U . . .
 O43 O 0.6874(4) 0.6055(10) 0.4786(6) 0.039(3) Uani 1 1 d . U . . .
 C9 C 0.8036(4) 0.1559(13) 0.3086(7) 0.034(4) Uani 1 1 d . U . . .
 C14 C 0.7277(3) 0.5843(12) 0.3796(6) 0.033(5) Uani 1 1 d . . . . .
 H14 H 0.692893 0.561993 0.376931 0.040 Uiso 1 1 calc R U . . .
 C17 C 0.8101(3) 1.0942(12) 0.4585(6) 0.027(3) Uani 1 1 d . U . . .
 H17 H 0.830482 1.221672 0.476345 0.032 Uiso 1 1 calc R U . . .
 O35 O 0.8932(3) 0.5432(12) 0.3589(6) 0.038(4) Uani 1 1 d . . . . .
 C30 C 0.5390(4) 0.8531(13) 0.4436(7) 0.032(3) Uani 1 1 d . U . . .
 C15 C 0.7484(4) 0.4453(12) 0.3580(6) 0.031(4) Uani 1 1 d . . . . .
 H15 H 0.730434 0.311589 0.340462 0.038 Uiso 1 1 calc R U . . .
 C12 C 0.8000(4) 0.7920(13) 0.4068(7) 0.031(3) Uani 1 1 d . U . . .
 C28 C 0.5700(3) 1.1115(13) 0.3983(7) 0.029(3) Uani 1 1 d . U . . .
 C6 C 0.8466(4) -0.0895(13) 0.2643(7) 0.034(3) Uani 1 1 d . U . . .
 C16 C 0.8262(4) 0.9667(12) 0.4314(7) 0.030(3) Uani 1 1 d . U . . .
 H16 H 0.858868 0.995377 0.428128 0.036 Uiso 1 1 calc R U . . .
 C4 C 0.8818(4) 0.2215(13) 0.3101(6) 0.029(3) Uani 1 1 d . U . . .
 C1 C 0.8885(5) -0.1229(14) 0.2536(8) 0.044(4) Uani 1 1 d . U . . .
 O36 O 0.7660(4) 0.0717(13) 0.2985(7) 0.049(5) Uani 1 1 d . U . . .
 C19 C 0.7362(3) 0.9060(12) 0.4347(6) 0.025(3) Uani 1 1 d . U . . .
 C7 C 0.8670(4) 0.3961(14) 0.3375(7) 0.032(4) Uani 1 1 d . U . . .
 C10 C 0.7952(3) 0.4818(12) 0.3591(6) 0.021(4) Uani 1 1 d . . . . .
 C8 C 0.8199(4) 0.3509(12) 0.3352(7) 0.031(3) Uani 1 1 d . U . . .
 C20 C 0.7531(3) 0.7646(11) 0.4065(6) 0.026(3) Uani 1 1 d . U . . .
 C2 C 0.9256(5) 0.0123(14) 0.2716(7) 0.039(4) Uani 1 1 d . U . . .

loop_
  _atom_site_aniso_label
  _atom_site_aniso_U_11
  _atom_site_aniso_U_22
  _atom_site_aniso_U_33
  _atom_site_aniso_U_23
  _atom_site_aniso_U_13
  _atom_site_aniso_U_12
 Cl39 0.034(3) 0.048(2) 0.030(7) 0.021(3) -0.007(4) 0.010(2)
 Cl37 0.047(3) 0.038(2) 0.034(8) -0.003(3) 0.002(5) -0.009(2)
 Cl34 0.026(3) 0.062(3) 0.020(7) 0.001(3) -0.003(4) -0.006(2)
 Cl42 0.032(3) 0.048(2) 0.035(7) 0.020(3) -0.007(4) -0.0011(19)
 Cl41 0.032(3) 0.068(3) 0.031(8) 0.007(4) 0.002(5) -0.004(2)
 Cl40 0.024(3) 0.061(3) 0.019(7) 0.000(3) -0.014(4) 0.017(2)
 Cl33 0.045(4) 0.057(3) 0.042(8) -0.006(3) 0.019(5) 0.006(2)
 Cl32 0.060(4) 0.057(3) 0.043(9) -0.021(4) 0.011(6) 0.011(3)
 C23 0.017(4) 0.023(3) 0.011(8) -0.003(4) -0.010(5) 0.000(3)
 C18 0.015(4) 0.024(3) 0.011(9) 0.002(4) -0.009(5) -0.008(3)
 C31 0.025(4) 0.036(4) 0.008(8) 0.003(4) -0.007(5) -0.001(3)
 C26 0.035(4) 0.022(3) 0.016(8) 0.004(4) 0.007(5) 0.010(3)
 C29 0.016(4) 0.035(3) 0.022(9) 0.004(4) -0.013(5) 0.003(3)
 C3 0.028(5) 0.045(4) 0.006(10) -0.001(5) 0.002(7) -0.007(3)
 C25 0.031(4) 0.031(3) 0.012(8) 0.006(4) 0.000(5) 0.005(3)
 N11 0.020(4) 0.036(4) 0.008(11) 0.004(5) -0.009(7) -0.006(3)
 C27 0.019(3) 0.032(3) 0.013(8) 0.005(4) -0.014(4) -0.002(2)
 O38 0.017(4) 0.051(4) 0.033(11) 0.025(5) -0.012(6) 0.003(3)
 N22 0.026(5) 0.027(3) 0.012(9) 0.005(4) -0.009(6) 0.001(3)
 C21 0.047(10) 0.029(6) 0.03(2) 0.000 0.003(15) 0.000
 C5 0.031(5) 0.034(3) 0.022(10) -0.001(4) 0.007(6) -0.003(3)
 O43 0.048(5) 0.027(3) 0.033(9) 0.011(4) 0.003(6) 0.012(3)
 C9 0.040(5) 0.034(4) 0.029(11) -0.005(5) 0.011(7) -0.005(3)
 C14 0.020(5) 0.033(4) 0.043(15) -0.027(6) 0.006(8) -0.016(4)
 C17 0.020(4) 0.030(3) 0.023(9) 0.002(4) -0.002(6) -0.005(3)
 O35 0.025(5) 0.048(4) 0.031(13) -0.017(5) -0.004(7) -0.012(3)
 C30 0.023(4) 0.035(3) 0.022(9) 0.001(4) -0.012(5) -0.004(3)
 C15 0.053(8) 0.026(4) 0.015(13) -0.010(5) 0.012(10) -0.003(4)
 C12 0.024(4) 0.035(4) 0.025(10) -0.001(5) -0.003(6) -0.007(3)
 C28 0.018(4) 0.035(3) 0.018(9) 0.006(4) -0.013(5) 0.004(3)
 C6 0.044(6) 0.032(4) 0.017(11) 0.000(5) 0.001(7) 0.003(4)
 C16 0.019(4) 0.037(3) 0.025(10) -0.004(5) -0.004(6) -0.005(3)
 C4 0.028(4) 0.041(4) 0.017(10) -0.003(5) 0.005(6) -0.007(3)
 C1 0.057(6) 0.036(4) 0.043(12) -0.015(6) 0.020(8) -0.005(4)
 O36 0.041(6) 0.049(4) 0.053(15) -0.026(6) 0.012(9) -0.023(4)
 C19 0.019(4) 0.028(3) 0.015(9) -0.008(4) -0.012(5) -0.005(3)
 C7 0.032(5) 0.046(4) 0.010(11) -0.007(5) -0.003(7) -0.007(4)
 C10 0.018(5) 0.034(4) 0.004(12) -0.002(5) -0.007(8) 0.005(3)
 C8 0.030(5) 0.034(4) 0.023(11) 0.001(5) 0.000(7) 0.002(3)
 C20 0.022(4) 0.026(3) 0.022(9) -0.006(4) -0.003(6) -0.007(3)
 C2 0.049(6) 0.049(4) 0.024(11) -0.006(5) 0.017(8) -0.005(4)

_geom_special_details
;
 All esds (except the esd in the dihedral angle between two l.s. planes)
 are estimated using the full covariance matrix.  The cell esds are taken
 into account individually in the estimation of esds in distances, angles
 and torsion angles; correlations between esds in cell parameters are only
 used when they are defined by crystal symmetry.  An approximate (isotropic)
 treatment of cell esds is used for estimating esds involving l.s. planes.
;
loop_
  _geom_bond_atom_site_label_1
  _geom_bond_atom_site_label_2
  _geom_bond_distance
  _geom_bond_site_symmetry_2
  _geom_bond_publ_flag
 Cl39 C28 1.711(19) . ?
 Cl37 C6 1.713(17) . ?
 Cl34 C3 1.702(16) . ?
 Cl42 C31 1.729(19) . ?
 Cl41 C30 1.678(14) . ?
 Cl40 C29 1.730(15) . ?
 Cl33 C2 1.717(15) . ?
 Cl32 C1 1.722(19) . ?
 C23 C27 1.522(15) . ?
 C23 O38 1.209(17) . ?
 C23 N22 1.391(17) . ?
 C18 C21 1.494(15) . ?
 C18 C17 1.441(14) . ?
 C18 C19 1.420(18) . ?
 C31 C25 1.390(14) . ?
 C31 C30 1.428(16) . ?
 C26 C25 1.477(16) . ?
 C26 N22 1.398(16) . ?
 C26 O43 1.220(18) . ?
 C29 C30 1.42(2) . ?
 C29 C28 1.411(16) . ?
 C3 C4 1.369(14) . ?
 C3 C2 1.44(2) . ?
 C25 C27 1.37(2) . ?
 N11 H11 1.0500 . ?
 N11 C12 1.347(17) . ?
 N11 C10 1.349(18) . ?
 C27 C28 1.383(16) . ?
 N22 C19 1.458(15) . ?
 C21 H21A 1.0500 . ?
 C21 H21B 1.0500 . ?
 C5 C9 1.520(16) . ?
 C5 C6 1.387(19) . ?
 C5 C4 1.409(17) . ?
 C9 O36 1.212(16) . ?
 C9 C8 1.46(2) . ?
 C14 H14 1.0500 . ?
 C14 C15 1.352(16) . ?
 C14 C20 1.458(18) . ?
 C17 H17 1.0500 . ?
 C17 C16 1.322(18) . ?
 O35 C7 1.256(17) . ?
 C15 H15 1.0500 . ?
 C15 C10 1.436(16) . ?
 C12 C16 1.417(19) . ?
 C12 C20 1.441(15) . ?
 C6 C1 1.424(17) . ?
 C16 H16 1.0500 . ?
 C4 C7 1.516(18) . ?
 C1 C2 1.38(2) . ?
 C19 C20 1.414(17) . ?
 C7 C8 1.446(16) . ?
 C10 C8 1.440(16) . ?

loop_
  _geom_angle_atom_site_label_1
  _geom_angle_atom_site_label_2
  _geom_angle_atom_site_label_3
  _geom_angle
  _geom_angle_site_symmetry_1
  _geom_angle_site_symmetry_3
  _geom_angle_publ_flag
 O38 C23 C27 128.2(9) . . ?
 O38 C23 N22 126.7(9) . . ?
 N22 C23 C27 104.9(9) . . ?
 C17 C18 C21 121.6(10) . . ?
 C19 C18 C21 120.9(9) . . ?
 C19 C18 C17 117.5(11) . . ?
 C25 C31 Cl42 120.5(9) . . ?
 C25 C31 C30 119.6(11) . . ?
 C30 C31 Cl42 119.8(9) . . ?
 N22 C26 C25 105.8(10) . . ?
 O43 C26 C25 130.8(9) . . ?
 O43 C26 N22 123.4(10) . . ?
 C30 C29 Cl40 118.8(8) . . ?
 C28 C29 Cl40 119.4(10) . . ?
 C28 C29 C30 121.7(9) . . ?
 C4 C3 Cl34 121.7(10) . . ?
 C4 C3 C2 117.0(10) . . ?
 C2 C3 Cl34 121.2(9) . . ?
 C31 C25 C26 130.8(11) . . ?
 C27 C25 C31 119.8(10) . . ?
 C27 C25 C26 109.2(8) . . ?
 C12 N11 H11 117.9 . . ?
 C12 N11 C10 124.2(9) . . ?
 C10 N11 H11 117.9 . . ?
 C25 C27 C23 107.6(9) . . ?
 C25 C27 C28 123.8(10) . . ?
 C28 C27 C23 128.6(11) . . ?
 C23 N22 C26 112.4(9) . . ?
 C23 N22 C19 120.0(9) . . ?
 C26 N22 C19 127.0(10) . . ?
 C18 C21 C18 112.8(12) . 2_656 ?
 C18 C21 H21A 109.0 2_656 . ?
 C18 C21 H21A 109.0 . . ?
 C18 C21 H21B 109.0 2_656 . ?
 C18 C21 H21B 109.0 . . ?
 H21A C21 H21B 107.8 . . ?
 C6 C5 C9 128.7(9) . . ?
 C6 C5 C4 120.5(10) . . ?
 C4 C5 C9 110.8(11) . . ?
 O36 C9 C5 126.2(12) . . ?
 O36 C9 C8 129.5(10) . . ?
 C8 C9 C5 104.2(9) . . ?
 C15 C14 H14 119.6 . . ?
 C15 C14 C20 120.9(9) . . ?
 C20 C14 H14 119.6 . . ?
 C18 C17 H17 119.0 . . ?
 C16 C17 C18 122.0(10) . . ?
 C16 C17 H17 119.0 . . ?
 C31 C30 Cl41 119.6(10) . . ?
 C29 C30 Cl41 122.1(8) . . ?
 C29 C30 C31 118.2(10) . . ?
 C14 C15 H15 120.2 . . ?
 C14 C15 C10 119.6(10) . . ?
 C10 C15 H15 120.2 . . ?
 N11 C12 C16 121.3(9) . . ?
 N11 C12 C20 119.1(10) . . ?
 C16 C12 C20 119.6(10) . . ?
 C29 C28 Cl39 120.8(8) . . ?
 C27 C28 Cl39 122.5(9) . . ?
 C27 C28 C29 116.8(12) . . ?
 C5 C6 Cl37 123.2(9) . . ?
 C5 C6 C1 118.2(10) . . ?
 C1 C6 Cl37 118.5(10) . . ?
 C17 C16 C12 121.2(9) . . ?
 C17 C16 H16 119.4 . . ?
 C12 C16 H16 119.4 . . ?
 C3 C4 C5 122.6(11) . . ?
 C3 C4 C7 130.3(9) . . ?
 C5 C4 C7 107.1(9) . . ?
 C6 C1 Cl32 120.3(10) . . ?
 C2 C1 Cl32 119.1(10) . . ?
 C2 C1 C6 120.6(12) . . ?
 C18 C19 N22 120.3(10) . . ?
 C20 C19 C18 121.0(9) . . ?
 C20 C19 N22 118.7(10) . . ?
 O35 C7 C4 123.4(10) . . ?
 O35 C7 C8 129.6(11) . . ?
 C8 C7 C4 107.0(10) . . ?
 N11 C10 C15 119.2(9) . . ?
 N11 C10 C8 116.3(9) . . ?
 C15 C10 C8 124.6(10) . . ?
 C7 C8 C9 110.9(9) . . ?
 C10 C8 C9 127.0(9) . . ?
 C10 C8 C7 122.1(11) . . ?
 C12 C20 C14 117.0(9) . . ?
 C19 C20 C14 125.0(9) . . ?
 C19 C20 C12 117.9(10) . . ?
 C3 C2 Cl33 117.2(9) . . ?
 C1 C2 Cl33 121.7(10) . . ?
 C1 C2 C3 121.0(10) . . ?

loop_
  _geom_torsion_atom_site_label_1
  _geom_torsion_atom_site_label_2
  _geom_torsion_atom_site_label_3
  _geom_torsion_atom_site_label_4
  _geom_torsion
  _geom_torsion_site_symmetry_1
  _geom_torsion_site_symmetry_2
  _geom_torsion_site_symmetry_3
  _geom_torsion_site_symmetry_4
  _geom_torsion_publ_flag
 Cl37 C6 C1 Cl32 5(2) . . . . ?
 Cl37 C6 C1 C2 -176.7(14) . . . . ?
 Cl34 C3 C4 C5 -180.0(12) . . . . ?
 Cl34 C3 C4 C7 0(2) . . . . ?
 Cl34 C3 C2 Cl33 3.3(19) . . . . ?
 Cl34 C3 C2 C1 -179.5(14) . . . . ?
 Cl42 C31 C25 C26 -1(2) . . . . ?
 Cl42 C31 C25 C27 -176.9(12) . . . . ?
 Cl42 C31 C30 Cl41 -5.3(18) . . . . ?
 Cl42 C31 C30 C29 178.5(12) . . . . ?
 Cl40 C29 C30 Cl41 5.1(19) . . . . ?
 Cl40 C29 C30 C31 -178.9(11) . . . . ?
 Cl40 C29 C28 Cl39 -1.9(19) . . . . ?
 Cl40 C29 C28 C27 177.2(12) . . . . ?
 Cl32 C1 C2 Cl33 -4(2) . . . . ?
 Cl32 C1 C2 C3 178.8(13) . . . . ?
 C23 C27 C28 Cl39 2(2) . . . . ?
 C23 C27 C28 C29 -177.4(14) . . . . ?
 C23 N22 C19 C18 66(2) . . . . ?
 C23 N22 C19 C20 -110.1(15) . . . . ?
 C18 C17 C16 C12 0(2) . . . . ?
 C18 C19 C20 C14 172.9(14) . . . . ?
 C18 C19 C20 C12 -3(2) . . . . ?
 C31 C25 C27 C23 177.6(13) . . . . ?
 C31 C25 C27 C28 -2(2) . . . . ?
 C26 C25 C27 C23 1.3(16) . . . . ?
 C26 C25 C27 C28 -178.1(14) . . . . ?
 C26 N22 C19 C18 -104.4(16) . . . . ?
 C26 N22 C19 C20 79(2) . . . . ?
 C3 C4 C7 O35 -1(3) . . . . ?
 C3 C4 C7 C8 -179.0(16) . . . . ?
 C25 C31 C30 Cl41 177.9(12) . . . . ?
 C25 C31 C30 C29 2(2) . . . . ?
 C25 C26 N22 C23 2.3(15) . . . . ?
 C25 C26 N22 C19 173.4(13) . . . . ?
 C25 C27 C28 Cl39 -179.2(13) . . . . ?
 C25 C27 C28 C29 2(2) . . . . ?
 N11 C12 C16 C17 -173.8(14) . . . . ?
 N11 C12 C20 C14 -1(2) . . . . ?
 N11 C12 C20 C19 175.5(13) . . . . ?
 N11 C10 C8 C9 177.6(15) . . . . ?
 N11 C10 C8 C7 1(2) . . . . ?
 C27 C23 N22 C26 -1.5(15) . . . . ?
 C27 C23 N22 C19 -173.4(12) . . . . ?
 O38 C23 C27 C25 176.9(15) . . . . ?
 O38 C23 C27 C28 -4(3) . . . . ?
 O38 C23 N22 C26 -178.4(14) . . . . ?
 O38 C23 N22 C19 10(2) . . . . ?
 N22 C23 C27 C25 0.1(16) . . . . ?
 N22 C23 C27 C28 179.4(15) . . . . ?
 N22 C26 C25 C31 -177.9(15) . . . . ?
 N22 C26 C25 C27 -2.2(16) . . . . ?
 N22 C19 C20 C14 -11(2) . . . . ?
 N22 C19 C20 C12 173.2(12) . . . . ?
 C21 C18 C17 C16 172.2(12) . . . . ?
 C21 C18 C19 N22 13.2(19) . . . . ?
 C21 C18 C19 C20 -170.7(11) . . . . ?
 C5 C9 C8 C7 -2.0(18) . . . . ?
 C5 C9 C8 C10 -178.9(14) . . . . ?
 C5 C6 C1 Cl32 -176.6(13) . . . . ?
 C5 C6 C1 C2 1(2) . . . . ?
 C5 C4 C7 O35 178.5(17) . . . . ?
 C5 C4 C7 C8 1.0(16) . . . . ?
 O43 C26 C25 C31 3(3) . . . . ?
 O43 C26 C25 C27 179.2(16) . . . . ?
 O43 C26 N22 C23 -178.9(14) . . . . ?
 O43 C26 N22 C19 -8(2) . . . . ?
 C9 C5 C6 Cl37 -2(2) . . . . ?
 C9 C5 C6 C1 179.7(16) . . . . ?
 C9 C5 C4 C3 177.7(14) . . . . ?
 C9 C5 C4 C7 -2.3(17) . . . . ?
 C14 C15 C10 N11 2(2) . . . . ?
 C14 C15 C10 C8 -176.7(15) . . . . ?
 C17 C18 C21 C18 -127.0(13) . . . 2_656 ?
 C17 C18 C19 N22 -166.9(11) . . . . ?
 C17 C18 C19 C20 9.2(19) . . . . ?
 O35 C7 C8 C9 -176.6(17) . . . . ?
 O35 C7 C8 C10 0(3) . . . . ?
 C30 C31 C25 C26 175.3(14) . . . . ?
 C30 C31 C25 C27 0(2) . . . . ?
 C30 C29 C28 Cl39 -179.1(12) . . . . ?
 C30 C29 C28 C27 0(2) . . . . ?
 C15 C14 C20 C12 3(2) . . . . ?
 C15 C14 C20 C19 -173.0(14) . . . . ?
 C15 C10 C8 C9 -4(2) . . . . ?
 C15 C10 C8 C7 179.8(14) . . . . ?
 C12 N11 C10 C15 0(2) . . . . ?
 C12 N11 C10 C8 179.0(14) . . . . ?
 C28 C29 C30 Cl41 -177.7(12) . . . . ?
 C28 C29 C30 C31 -2(2) . . . . ?
 C6 C5 C9 O36 -2(3) . . . . ?
 C6 C5 C9 C8 -177.9(15) . . . . ?
 C6 C5 C4 C3 -2(2) . . . . ?
 C6 C5 C4 C7 178.2(13) . . . . ?
 C6 C1 C2 Cl33 177.8(13) . . . . ?
 C6 C1 C2 C3 1(3) . . . . ?
 C16 C12 C20 C14 178.7(14) . . . . ?
 C16 C12 C20 C19 -5(2) . . . . ?
 C4 C3 C2 Cl33 179.5(12) . . . . ?
 C4 C3 C2 C1 -3(2) . . . . ?
 C4 C5 C9 O36 179.0(17) . . . . ?
 C4 C5 C9 C8 2.7(18) . . . . ?
 C4 C5 C6 Cl37 177.1(13) . . . . ?
 C4 C5 C6 C1 -1(2) . . . . ?
 C4 C7 C8 C9 0.7(18) . . . . ?
 C4 C7 C8 C10 177.8(13) . . . . ?
 O36 C9 C8 C7 -178.2(18) . . . . ?
 O36 C9 C8 C10 5(3) . . . . ?
 C19 C18 C21 C18 52.9(10) . . . 2_656 ?
 C19 C18 C17 C16 -8(2) . . . . ?
 C10 N11 C12 C16 179.8(15) . . . . ?
 C10 N11 C12 C20 -1(2) . . . . ?
 C20 C14 C15 C10 -3(2) . . . . ?
 C20 C12 C16 C17 7(2) . . . . ?
 C2 C3 C4 C5 4(2) . . . . ?
 C2 C3 C4 C7 -176.2(15) . . . . ?

_shelx_res_file
;
TITL exp_2054_exp_2052_a.res in I2/a
    exp_2054_exp_2052.res
    created by SHELXL-2018/3 at 09:35:32 on 23-Oct-2023
REM Old TITL exp_2054_exp_2052_a.res in I2/a
REM SHELXT solution in I2/a: R1 0.293, Rweak 0.109, Alpha 0.132
REM <I/s> 3.570 for 233 systematic absences, Orientation as input
REM Formula found by SHELXT: C57 O8 Cl16
CELL 0.0251 30.5262 6.4372 28.1494 90 109.695 90
ZERR 4 0.2044 0.0744 0.2165 0 0.466 0
LATT 2
SYMM 0.5-X,+Y,-Z
SFAC  C 0.136 0.373 0.548 3.281 1.227 13.046 0.597 41.02 0 0 0 0 0.75 12.011
SFAC  H 0.037 0.561 0.127 3.791 0.236 13.556 0.129 37.723 0 0 0 0 0.32 1.008
SFAC  N 0.137 0.329 0.534 2.673 1.086 10.316 0.455 32.763 0 0 0 0 0.71 14.007
SFAC  O 0.143 0.305 0.51 2.268 0.937 8.262 0.392 25.665 0 0 0 0 0.63 15.999
SFAC  Cl 0.340 0.338 0.891 2.619 2.388 11.068 1.238 33.538 0 0 0 0 0.99 35.453
UNIT 212 48 16 32 64

RIGU C5 C9 C4 C7 C8
SIMU C5 C9 C4 C7 C8
SIMU 0.03 0.06 2 C18 C17 C12 C16 C19 C20
RIGU 0.002 0.002 C18 C17 C12 C16 C19 C20
RIGU 0.002 0.002 Cl40 C23 C26 C29 C25 C27 O38 C30 C28 Cl42 O43 H14 Cl39 =
 CL41 C31
SIMU 0.02 0.04 2 Cl42 Cl41 Cl40 C23 C31 C26 C29 C25 C27 O38 N22 O43 C30 C28 =
 CL39
RIGU 0.003 0.003 C3 C5 C9 C6 C4 C1 C7 C8 C2
SIMU 0.03 0.06 2 C3 C5 C9 C6 C4 C1 O36 C7 C8 C2

L.S. 4 0 0
PLAN  19
CONF
BOND
list 4
fmap 2 53
acta
MORE -1
BOND $H
OMIT -12 0 2
OMIT -12 0 6
OMIT -6 1 1
OMIT -6 2 8
OMIT -4 0 4
OMIT -4 2 6
OMIT -2 1 3
OMIT 6 0 0
REM <olex2.extras>
REM <HklSrc "%.\\exp_2054_EXP_2052.hkl">
REM </olex2.extras>

WGHT    0.100000
FVAR       0.65721
CL39  5    0.562690    1.332137    0.362597    11.00000    0.03399    0.04812 =
         0.02962    0.02121   -0.00700    0.00961
CL37  5    0.802903   -0.269394    0.243694    11.00000    0.04746    0.03760 =
         0.03402   -0.00349    0.00228   -0.00894
CL34  5    0.968589    0.356763    0.324151    11.00000    0.02622    0.06198 =
         0.01954    0.00141   -0.00314   -0.00554
CL42  5    0.591192    0.528236    0.495541    11.00000    0.03226    0.04846 =
         0.03510    0.02027   -0.00665   -0.00112
CL41  5    0.495266    0.754435    0.460005    11.00000    0.03200    0.06762 =
         0.03084    0.00689    0.00216   -0.00354
CL40  5    0.481409    1.167948    0.397060    11.00000    0.02389    0.06115 =
         0.01853   -0.00002   -0.01433    0.01658
CL33  5    0.977106   -0.028537    0.261089    11.00000    0.04521    0.05672 =
         0.04223   -0.00618    0.01925    0.00599
CL32  5    0.892777   -0.328390    0.216239    11.00000    0.06030    0.05707 =
         0.04262   -0.02084    0.01098    0.01102
C23   1    0.656971    1.053095    0.405903    11.00000    0.01658    0.02268 =
         0.01058   -0.00272   -0.01044   -0.00027
C18   1    0.765372    1.063703    0.464278    11.00000    0.01481    0.02443 =
         0.01076    0.00159   -0.00911   -0.00821
C31   1    0.582479    0.746087    0.457535    11.00000    0.02507    0.03647 =
         0.00772    0.00300   -0.00725   -0.00062
C26   1    0.666845    0.754243    0.454350    11.00000    0.03539    0.02239 =
         0.01582    0.00431    0.00717    0.01027
C29   1    0.533488    1.033831    0.413393    11.00000    0.01620    0.03476 =
         0.02204    0.00367   -0.01334    0.00348
C3    1    0.923174    0.188735    0.302210    11.00000    0.02791    0.04483 =
         0.00634   -0.00121    0.00223   -0.00740
C25   1    0.618233    0.824008    0.442504    11.00000    0.03058    0.03133 =
         0.01211    0.00572   -0.00043    0.00533
N11   3    0.818083    0.651403    0.383109    11.00000    0.01961    0.03588 =
         0.00763    0.00375   -0.00870   -0.00584
AFIX  43  1.0500
H11   2    0.852188    0.675316    0.383368    11.00000   -1.20000
AFIX   0
C27   1    0.611469    1.002632    0.414392    11.00000    0.01885    0.03169 =
         0.01332    0.00550   -0.01384   -0.00229
O38   4    0.664960    1.193187    0.381397    11.00000    0.01689    0.05059 =
         0.03318    0.02479   -0.01177    0.00295
N22   3    0.687328    0.895263    0.430362    11.00000    0.02622    0.02747 =
         0.01152    0.00550   -0.00901    0.00121
C21   1    0.750000    1.192101    0.500000    10.50000    0.04665    0.02941 =
         0.03249    0.00000    0.00334    0.00000
AFIX  23  1.0500
H21A  2    0.722405    1.288214    0.479217    10.50000   -1.20000
H21B  2    0.777597    1.288204    0.520784    10.50000   -1.20000
AFIX   0
C5    1    0.843859    0.084287    0.292295    11.00000    0.03065    0.03361 =
         0.02210   -0.00055    0.00731   -0.00332
O43   4    0.687398    0.605464    0.478637    11.00000    0.04782    0.02717 =
         0.03314    0.01087    0.00336    0.01237
C9    1    0.803605    0.155877    0.308566    11.00000    0.04026    0.03391 =
         0.02915   -0.00488    0.01148   -0.00536
C14   1    0.727709    0.584255    0.379562    11.00000    0.02044    0.03339 =
         0.04297   -0.02734    0.00643   -0.01636
AFIX  43  1.0500
H14   2    0.692893    0.561993    0.376931    11.00000   -1.20000
AFIX   0
C17   1    0.810064    1.094249    0.458506    11.00000    0.01978    0.03043 =
         0.02289    0.00231   -0.00156   -0.00482
AFIX  43  1.0500
H17   2    0.830482    1.221672    0.476345    11.00000   -1.20000
AFIX   0
O35   4    0.893243    0.543216    0.358858    11.00000    0.02457    0.04822 =
         0.03147   -0.01708   -0.00392   -0.01210
C30   1    0.539001    0.853077    0.443578    11.00000    0.02318    0.03453 =
         0.02195    0.00138   -0.01232   -0.00411
C15   1    0.748420    0.445300    0.357953    11.00000    0.05322    0.02603 =
         0.01549   -0.01021    0.01220   -0.00343
AFIX  43  1.0500
H15   2    0.730434    0.311589    0.340462    11.00000   -1.20000
AFIX   0
C12   1    0.800048    0.792044    0.406787    11.00000    0.02440    0.03487 =
         0.02460   -0.00112   -0.00252   -0.00671
C28   1    0.569986    1.111496    0.398300    11.00000    0.01848    0.03457 =
         0.01847    0.00641   -0.01298    0.00381
C6    1    0.846610   -0.089508    0.264298    11.00000    0.04430    0.03184 =
         0.01730   -0.00016    0.00052    0.00319
C16   1    0.826154    0.966703    0.431428    11.00000    0.01880    0.03671 =
         0.02497   -0.00365   -0.00412   -0.00458
AFIX  43  1.0500
H16   2    0.858868    0.995377    0.428128    11.00000   -1.20000
AFIX   0
C4    1    0.881849    0.221491    0.310119    11.00000    0.02797    0.04089 =
         0.01723   -0.00260    0.00541   -0.00686
C1    1    0.888452   -0.122948    0.253573    11.00000    0.05675    0.03648 =
         0.04252   -0.01496    0.01973   -0.00476
O36   4    0.766045    0.071652    0.298490    11.00000    0.04128    0.04913 =
         0.05298   -0.02572    0.01185   -0.02342
C19   1    0.736217    0.905960    0.434677    11.00000    0.01881    0.02754 =
         0.01528   -0.00753   -0.01186   -0.00502
C7    1    0.866965    0.396087    0.337461    11.00000    0.03215    0.04591 =
         0.01042   -0.00724   -0.00309   -0.00660
C10   1    0.795161    0.481806    0.359083    11.00000    0.01833    0.03360 =
         0.00440   -0.00210   -0.00673    0.00498
C8    1    0.819890    0.350881    0.335194    11.00000    0.02982    0.03424 =
         0.02300    0.00130    0.00026    0.00165
C20   1    0.753104    0.764620    0.406473    11.00000    0.02250    0.02580 =
         0.02184   -0.00610   -0.00338   -0.00729
C2    1    0.925565    0.012309    0.271627    11.00000    0.04868    0.04906 =
         0.02373   -0.00633    0.01693   -0.00473
HKLF 4




REM  exp_2054_exp_2052_a.res in I2/a
REM wR2 = 0.4574, GooF = S = 2.483, Restrained GooF = 2.369 for all data
REM R1 = 0.1999 for 2918 Fo > 4sig(Fo) and 0.2382 for all 3992 data
REM 366 parameters refined using 405 restraints

END

WGHT      0.2000      0.0000

REM Highest difference peak  0.202,  deepest hole -0.218,  1-sigma level  0.051
Q1    1   0.5414  1.3442  0.3419  11.00000  0.05    0.20
Q2    1   0.5804  0.6532  0.4407  11.00000  0.05    0.20
Q3    1   0.5213  1.3131  0.3165  11.00000  0.05    0.19
Q4    1   0.6007  0.6129  0.5407  11.00000  0.05    0.18
Q5    1   0.5656  1.3441  0.3744  11.00000  0.05    0.18
Q6    1   0.7527  0.5278  0.3216  11.00000  0.05    0.18
Q7    1   0.6613  1.0819  0.3182  11.00000  0.05    0.18
Q8    1   1.0008  0.3540  0.3570  11.00000  0.05    0.17
Q9    1   0.8012  1.0458  0.5028  11.00000  0.05    0.17
Q10   1   0.9797 -0.1928  0.3018  11.00000  0.05    0.16
Q11   1   0.5569  1.2776  0.3613  11.00000  0.05    0.16
Q12   1   0.6824  0.6382  0.5056  11.00000  0.05    0.16
Q13   1   0.7452  0.5500  0.3025  11.00000  0.05    0.15
Q14   1   0.5203  1.1257  0.4524  11.00000  0.05    0.15
Q15   1   0.5588  0.5294  0.4650  11.00000  0.05    0.15
Q16   1   0.8197  1.0607  0.3783  11.00000  0.05    0.15
Q17   1   0.7500  0.9796  0.4934  11.00000  0.05    0.15
Q18   1   0.8412 -0.2681  0.2780  11.00000  0.05    0.15
Q19   1   0.6598  1.0943  0.4129  11.00000  0.05    0.15
;
_shelx_res_checksum                81735
_shelx_hkl_file
;
   0   1  -1 1887.07    7.49
   0  -1   1 1882.92    7.60
   0   1   3  901.20    9.87
   0  -1  -3  837.38    9.56
   0  -2   0  285.83    4.43
   0  -2   0  170.33    2.82
   0  -2  -2  202.89    3.59
   0   2   2  215.88    3.68
   0   2   2  204.63    6.01
   0  -2   2  198.05    4.57
   0  -2  -4    8.94    3.42
   0  -2  -4   -0.83    4.34
   0   2   4    1.93    4.33
   0   2   6   39.61    8.03
   0  -2  -6   45.70    8.57
   0  -2  -6   39.23    7.15
   0  -2  -8  751.51   20.80
   0   2   8  545.67   19.31
   0   3   1  339.71    6.68
   0  -3  -1  308.69    6.19
   0  -3   1  335.60    7.00
   0  -3  -3   86.43    3.46
   0  -3   3  116.77    4.99
   0   3   5  112.15    4.61
   0   3   5  117.06    7.29
   0  -3  -5   79.23    6.99
   0  -3   5   96.83    8.21
   0   3  -7  304.31   19.52
   0  -3   7  318.26   20.97
   0  -3  -9  404.41   15.54
   0   3   9  751.48   14.13
   0   3  11    7.56    9.54
   0  -3 -11   49.41   11.08
   0  -3 -13  243.19   18.10
   0   3  13   45.18   13.23
   0  -4   0    3.36    2.06
   0   4   0    6.02    2.06
   0  -4  -2  109.29    3.15
   0   4   2  107.81    3.10
   0   4  -2  110.64    3.70
   0  -4  -4  442.86   10.61
   0   4   4  690.00    7.83
   0   4   6  142.08    7.63
   0   4   6   91.93    4.30
   0   4   8   57.20    6.56
   0  -4   8   73.48    9.13
   0   4  -8   67.23    9.16
   0  -4  -8   41.10    4.35
   0  -4 -10   15.06    6.44
   0   4  10   11.35    6.48
   0   4 -10   36.83   17.62
   0  -4  10   20.20   14.37
   0  -4 -10   16.38    5.04
   0   4  10    4.41    4.61
   0  -4 -12   49.32    8.32
   0  -4 -12   57.00    9.57
   0   4  12   62.64    9.92
   0  -4 -14   17.73   10.00
   0   4  14  155.27   14.96
   0   4  16   49.28   13.96
   0  -4 -16   62.86   12.87
   0   4  18  103.98   15.58
   0  -4 -18  155.15   17.50
   0  -4 -20   53.82   14.57
   0  -5  -1   16.09    2.47
   0   5   1   16.14    2.79
   0   5  -1    6.04    1.97
   0   5   3   36.39    2.55
   0   5   3   22.54    3.27
   0  -5   5   17.12    4.29
   0   5  -5   19.13    3.79
   0  -5  -5   15.09    2.88
   0   5   5   14.89    4.40
   0  -5  -5   20.86    4.41
   0   5   7   36.87    3.55
   0  -5  -7   17.85    3.34
   0   5  -7   24.31    7.13
   0  -5  -7   31.36    6.49
   0   5   7   45.53    6.48
   0  -5  -9   74.94    5.29
   0   5   9   45.15    7.06
   0   5  11   49.89    7.84
   0  -5  11   59.56   16.53
   0   5  13    2.85    7.13
   0  -5 -13   15.49    5.80
   0   5  13   11.39    6.12
   0  -5  13   14.78   14.10
   0   5 -13   23.36   16.34
   0  -5 -15   68.42   10.23
   0   5  15   47.83    9.69
   0  -5 -15   37.73    8.31
   0   5  15   67.82    8.64
   0   5  17    3.34    9.14
   0  -5 -17    0.78    8.04
   0  -5 -17   -2.07    7.92
   0  -5 -19   23.86   10.70
   0   5  19    1.93    9.33
   0   5  21   -8.89    8.89
   0  -5 -23    4.68   11.23
   0   5  23    4.49    9.85
   0  -5 -25   30.77   12.41
   0  -6   0    1.99    1.83
   0   6   0    5.10    2.26
   0   6   2   27.71    2.41
   0  -6  -2   31.00    2.61
   0  -6   2   23.75    3.18
   0   6   2   30.85    3.71
   0   6  -2   24.28    3.20
   0   6  -2   28.48    2.72
   0   6   4   65.11    3.22
   0  -6  -4   64.16    4.73
   0  -6   4   58.72    4.51
   0   6  -6   24.48    3.64
   0  -6   6   14.01    4.28
   0  -6  -6   15.40    2.85
   0  -6  -6   18.33    4.13
   0  -6  -8   27.37    3.16
   0   6   8   22.54    2.95
   0   6  -8   34.87    5.82
   0  -6   8   30.36    7.02
   0   6   8   18.06    6.17
   0  -6  10   52.66    8.68
   0  -6 -10   36.47    4.15
   0  -6 -10   37.00    6.21
   0   6  10   27.42    5.54
   0   6  12   18.35    3.56
   0   6  12    7.16    4.58
   0  -6 -12    9.68    5.46
   0  -6  12   12.25    8.30
   0   6 -12   14.37    7.70
   0   6  14   39.82    7.15
   0  -6  14   56.94   16.89
   0   6 -14   62.42   14.83
   0   6  14   58.27    5.32
   0  -6 -14   40.80    4.84
   0  -6 -14   57.00    7.55
   0   6 -16   -6.01   12.29
   0  -6  16    9.78   11.48
   0  -6 -16    3.58    5.22
   0   6  16    7.90    4.96
   0   6  16    2.85    5.84
   0   6 -18  -10.99   14.51
   0   6  18    7.65    7.21
   0  -6 -18   10.40    7.33
   0   6  18   17.85    6.45
   0  -6 -18    1.08    6.63
   0   6  20    2.96    8.43
   0  -6 -20    4.58    7.38
   0  -6 -20    7.50    7.17
   0   6  22   33.79   10.74
   0  -6 -22   40.97   10.76
   0   7  -1   17.70    2.35
   0  -7  -1   14.11    2.38
   0   7   1   14.56    2.66
   0  -7   1   14.72    2.35
   0   7  -1   15.58    2.38
   0   7   3    6.44    1.63
   0  -7  -3   13.95    2.86
   0   7   3    2.66    2.30
   0   7  -3    5.62    2.24
   0  -7   3    6.07    2.48
   0   7  -3    6.14    2.03
   0  -7  -5    6.70    2.12
   0   7   5    9.24    1.98
   0  -7  -5    5.14    2.15
   0   7   5   14.38    3.46
   0  -7   5    7.00    2.89
   0   7  -5    9.79    2.71
   0  -7  -7    5.44    2.36
   0   7   7    0.65    1.82
   0  -7  -7    1.84    2.86
   0   7   7    5.07    3.16
   0   7  -7    1.46    2.49
   0  -7   7   -1.17    3.55
   0   7   9    4.40    2.14
   0  -7  -9    4.96    2.66
   0   7   9   10.67    4.63
   0  -7  -9    6.54    3.59
   0   7  -9   16.53    4.82
   0  -7   9   -2.14    5.28
   0   7  11    9.50    2.84
   0  -7 -11   10.41    3.11
   0  -7 -11   24.32    5.43
   0   7  11   11.99    4.36
   0   7 -11   14.63    5.98
   0  -7  11   14.07    6.29
   0  -7  13    3.29    6.77
   0   7 -13    4.70    6.37
   0  -7 -13    3.15    3.25
   0   7  13   10.56    3.01
   0  -7 -13   12.47    5.38
   0   7  13   14.04    5.12
   0  -7 -15    4.68    4.61
   0   7  15   -1.52    2.64
   0  -7 -15   -3.21    3.10
   0  -7  15   -9.49   10.76
   0   7 -15   -5.45    6.58
   0   8   0    4.23    1.82
   0  -8   0    0.44    1.28
   0   8   0    2.73    1.34
   0  -8   0   -0.50    1.77
   0  -8  -2    1.69    1.76
   0   8   2   -1.64    1.22
   0  -8  -2    1.92    1.59
   0   8  -2    0.51    1.57
   0  -8   2    1.38    1.73
   0   8   2    2.86    1.47
   0  -8   2    4.45    2.08
   0   8  -2    5.14    1.97
   1  -1  -6  803.10   20.61
  -1   1   6  843.90   21.68
   1  -1  -4  263.13    9.73
  -1   1   4  234.24    9.52
  -1  -1   2 1691.85   11.10
   1   1  -2 1863.95   11.52
  -1  -1   0 1176.74    4.44
   1   1   0 1191.87    4.45
   1   1   2    8.31    3.20
  -1  -1  -2    1.90    3.33
  -1  -1  -2   16.38    6.81
   1   1   2   -4.99    6.65
  -1   1  -2   13.41   12.32
   1  -1   2   11.42   12.25
   1  -2 -11   40.37   13.39
  -1   2  11    9.93   12.30
  -1   2   9  641.46   20.08
   1  -2  -9  711.47   20.50
  -1   2   7  200.47   11.09
   1  -2  -7  154.82    9.81
   1   2  -5   64.78   13.36
  -1  -2   5   30.00   13.97
  -1   2   5   31.98    4.49
   1  -2  -5   32.57    4.51
  -1   2   5   26.84    5.39
   1  -2  -5   16.29    5.27
   1   2  -3  778.57    9.40
  -1  -2   3  739.03    9.67
   1  -2  -1  370.44    3.62
   1   2  -1  388.84    4.13
  -1  -2   1  353.18    3.98
   1   2  -1  381.23    5.21
   1  -2  -1  341.07    5.54
  -1   2   1  352.17    5.63
   1   2   1   14.45    1.86
  -1  -2  -1   11.13    1.96
  -1   2  -3   31.08    6.52
   1   2   3   48.44    4.85
   1   2   3   43.38    3.28
  -1   2  -5  594.76   17.22
   1  -2   5  569.22   17.76
  -1  -2  -5  574.30    8.37
   1   2   5  632.62    8.73
  -1  -2  -5  539.92   13.98
  -1  -2  -7 1163.13   24.90
   1   2   7 1275.86   25.41
  -1   3  16  556.76   24.96
   1  -3 -16  545.10   25.02
  -1   3  14  138.01   15.94
   1  -3 -14  225.54   17.80
  -1   3  12   59.32   11.56
   1  -3 -12  107.02   12.30
  -1   3  10   16.74    8.24
   1  -3 -10   43.32    8.70
  -1  -3   8  300.82   17.83
   1   3  -8  395.56   22.25
   1  -3  -8  332.67   11.71
  -1   3   6   73.49    4.43
   1  -3  -6   58.30    4.52
   1  -3  -6   84.03    7.07
  -1   3   6   57.46    6.61
   1   3  -4  479.93    8.30
  -1  -3   4  384.91    8.56
   1  -3  -2    5.56    1.97
  -1   3   2    4.83    2.00
  -1  -3   2    1.37    2.96
   1   3  -2   10.42    2.91
   1  -3  -2    2.82    2.68
   1  -3   0  456.05    6.84
  -1  -3   0  397.84    4.59
  -1  -3  -2  548.37    9.39
   1   3   2  636.68   10.03
  -1   3  -4  513.36   10.53
   1  -3   4  392.88   10.15
  -1  -3  -4  407.79   10.54
   1   3   4  373.87   10.29
   1   3   4  434.28    6.30
  -1  -3  -4  375.25    5.99
   1  -3   6  441.35   16.80
  -1  -3  -6  323.28    6.78
   1   3   8   19.74    8.50
  -1  -3  -8   18.64    7.53
  -1  -3  -8   14.21    5.45
   1  -3   8   -4.59   15.33
  -1   3  -8   17.25   15.12
  -1  -3 -10  257.02   11.11
  -1  -3 -10  170.97   13.25
   1   3  10  202.79   14.83
  -1  -3 -12   11.88   10.63
   1   3  12    6.08   11.79
   1  -4 -21   -8.05   11.96
   1  -4 -19   27.61   13.23
  -1   4  19   29.92   13.65
   1  -4 -17   49.27   13.01
  -1   4  17   10.06   11.95
   1  -4 -15  104.56   13.49
  -1   4  15   76.56   12.66
  -1   4  13   62.58   10.84
   1  -4 -13   93.01   10.43
   1  -4 -13   74.54    9.94
   1  -4 -11    7.64    6.55
  -1   4  11   16.30    6.69
   1  -4 -11   36.92    6.59
  -1   4  11   21.16    6.25
  -1  -4  11  -13.96   13.36
   1   4 -11   46.40   15.33
  -1   4   9   71.57    7.01
   1  -4  -9   93.70    5.28
  -1  -4   7    2.07    7.20
   1  -4  -7   26.52    5.96
   1   4  -5  290.61    7.52
   1  -4  -5  313.75   10.03
  -1   4   5  298.32   10.09
   1  -4  -3    5.34    2.04
  -1   4   3    6.24    2.08
   1   4  -3    5.72    2.84
  -1  -4   3   -2.76    3.03
   1  -4  -1  591.86    9.15
   1   4  -1  832.96    7.69
   1   4   1    7.91    1.92
  -1  -4  -1   12.20    2.15
  -1  -4  -1    8.80    2.33
  -1  -4  -3   53.27    2.97
   1   4   3   37.99    2.66
   1  -4   3   48.77    3.86
   1   4   3   56.09    4.65
  -1  -4  -3   62.66    4.71
   1  -4   5   21.01    6.47
   1   4   5   24.53    5.10
   1   4   7   17.73    3.48
  -1  -4  -7   20.01    3.86
   1   4   7   11.52    4.67
  -1  -4  -7   12.11    5.31
   1  -4   7   28.61    8.33
  -1   4  -7   14.60    7.85
   1   4   9   13.57    4.29
  -1  -4  -9   10.67    4.06
   1   4   9    7.35    6.37
  -1  -4  -9   24.73    6.70
  -1  -4 -11   15.20    8.14
   1   4  11   10.24    8.35
  -1   4 -11   10.94   14.90
   1   4  11   22.81    6.52
  -1  -4 -11   15.43    6.68
  -1  -4 -13   15.42   10.38
   1   4  13   19.18   10.72
   1   4  13   14.95    7.95
  -1  -4 -13   17.84    9.55
  -1  -4 -15  110.98   15.53
   1   4  15   74.77   13.89
  -1  -4 -17  213.17   18.81
   1  -5 -26  -14.97   10.06
  -1   5  24   -8.28    8.53
   1  -5 -24   -2.44   10.55
  -1   5  22   -5.80    9.50
   1  -5 -22    1.03    9.49
  -1   5  20   15.51    9.60
   1  -5 -20   26.18   10.54
  -1   5  18    3.44    8.72
   1  -5 -18   18.53    9.53
  -1   5  16   -7.31    6.90
   1  -5 -16   14.98    7.79
  -1   5  16   17.69    7.47
   1  -5 -16   -0.34    8.07
   1  -5 -14   68.26    9.15
  -1   5  14   58.63    9.01
   1  -5 -14   57.67    7.50
  -1  -5  14   20.21   15.01
   1   5 -14   72.74   16.63
   1   5 -12  340.64   21.41
  -1  -5  12  175.65   20.70
   1  -5 -12  182.16   11.16
  -1   5  12  306.64    9.21
  -1  -5  10   69.03   10.91
  -1   5  10   52.59    4.77
   1  -5 -10   59.28    5.43
  -1   5  10   52.18    7.24
   1  -5 -10   83.29    8.62
  -1  -5   8   39.13    7.97
   1   5  -8   19.16    8.01
  -1   5   8   13.26    3.56
  -1   5   8   27.99    6.68
   1  -5  -6   32.71    3.51
  -1   5   6   14.34    2.83
  -1   5   6   34.46    5.53
  -1  -5   4   66.93    4.17
  -1   5   4   64.69    4.78
   1  -5  -2   14.53    2.24
  -1   5   2   10.18    1.95
   1  -5  -2    7.69    2.63
  -1   5   2    7.09    2.66
   1   5  -2   17.52    2.58
   1   5   0    9.45    1.93
  -1  -5   0   15.43    2.22
  -1   5   0   15.04    2.02
   1   5   0   18.90    2.56
  -1   5   0   15.89    2.47
   1  -5   0   10.10    2.15
   1   5   2    4.35    1.98
  -1  -5  -2    2.93    2.70
   1   5   2    3.61    2.42
  -1   5  -2    0.79    2.22
   1  -5   2    4.35    2.64
  -1   5  -2    1.36    2.06
   1   5   4   25.05    2.82
  -1  -5  -4   14.90    2.71
   1  -5   4   28.88    3.76
  -1   5  -4   20.93    3.56
  -1   5  -6   19.21    5.71
   1  -5   6   16.42    6.53
   1   5   6   12.92    2.92
  -1  -5  -6   33.55    6.23
   1  -5   8    2.84    8.09
   1   5   8   11.25    5.98
   1  -5  10  239.77   16.53
   1   5  10  301.27    8.02
  -1  -5 -10  242.00    7.55
  -1  -5 -10  256.75   12.02
   1   5  12    7.28    5.14
  -1  -5 -12   15.35    5.30
  -1  -5 -12   17.93    6.87
   1  -5  12    7.33   14.27
  -1   5 -12    4.59   19.14
   1   5  14   14.32    9.17
  -1  -5 -14   40.23    9.81
  -1   5 -14    0.60   14.97
   1   5  14   19.70    6.86
  -1  -5 -14   15.35    6.81
  -1  -5 -16   85.29    9.87
   1   5  16  405.43   13.64
  -1  -5 -18   12.38   10.61
   1   5  18   33.07   11.30
  -1  -5 -20    4.24   11.22
   1   5  20   23.99   11.28
  -1  -5 -22   80.57   14.64
  -1   6  21   -0.99    6.51
   1  -6 -21    1.88    7.09
   1  -6 -19    9.75    6.80
  -1   6  19   14.88    7.27
  -1   6  17    1.48    6.32
   1  -6 -17    7.39    5.93
   1   6 -17    2.05   12.17
  -1  -6  17   10.49   12.24
  -1   6  17   10.23    5.64
   1  -6 -17    5.28    5.92
  -1   6  15    3.64    4.92
   1  -6 -15    8.91    5.25
   1   6 -15   29.14   15.26
  -1  -6  15  -11.82   13.03
   1  -6 -15    0.69    4.44
  -1   6  15    0.93    4.15
  -1   6  13    5.77    3.54
   1  -6 -13   -2.32    3.45
  -1   6  13   -3.51    4.04
  -1  -6  13    5.21   11.20
  -1  -6  11    4.04    7.53
   1   6 -11   30.02    7.41
   1  -6 -11   15.50    5.46
  -1   6  11   11.55    5.05
  -1   6  11    3.57    3.18
   1  -6 -11    5.61    3.50
   1   6  -9   14.13    6.49
  -1  -6   9    4.28    6.17
  -1   6   9    3.14    5.52
  -1  -6   7   30.15    5.06
   1   6  -7   42.23    4.71
  -1   6   7   42.46    3.26
   1  -6  -7   15.07    3.13
  -1   6   7   40.49    5.73
   1  -6  -7   48.79    5.53
   1  -6  -5   49.90    3.40
   1  -6  -5   39.38    4.25
   1  -6  -3   28.20    2.62
  -1  -6   3   25.39    3.22
   1   6  -3   37.52    2.84
   1  -6  -3   39.45    4.06
   1   6  -3   38.88    3.44
   1  -6  -1    4.94    2.03
  -1   6   1    4.66    1.95
  -1  -6   1    3.06    2.36
  -1   6   1    5.18    2.21
   1  -6  -1    8.06    2.34
   1   6  -1    0.63    1.84
  -1  -6   1    7.43    1.92
   1  -6   1   18.36    2.58
  -1  -6  -1   14.85    2.47
  -1   6  -1   26.06    2.65
   1  -6   1   22.69    2.98
  -1   6  -1   25.24    3.05
  -1  -6  -3   18.42    2.42
   1  -6   3   31.77    3.57
   1  -6   5   -5.36    2.98
  -1   6  -5    0.93    3.23
   1   6   5    0.43    2.22
  -1  -6  -5    5.54    3.19
   1   6   5    5.58    4.05
   1  -6   7   38.04    6.53
  -1   6  -7   32.34    4.89
  -1  -6  -7   28.60    3.44
   1   6   7   56.00    7.60
   1   6   7   51.29    3.47
   1   6   9   -2.16    4.03
  -1  -6  -9   -4.32    4.01
   1   6   9    7.58    2.84
  -1  -6  -9    3.65    3.27
   1  -6   9   19.17    7.02
   1   6  11    6.69    3.28
  -1  -6 -11    5.98    3.53
  -1  -6 -11    2.91    5.13
   1   6  11    0.45    4.48
  -1   6 -11   12.30    7.36
   1  -6  11    9.48    7.98
  -1  -6 -13    4.03    3.53
   1   6  13    8.33    3.50
   1   6  13    8.45    5.66
  -1  -6 -13   11.14    5.44
   1  -6  13   -4.08   12.71
  -1   6 -13    8.90   11.82
  -1  -6 -15   11.62    6.89
   1   6  15   -4.18    4.93
  -1   6 -15   19.46   14.80
   1  -6  15   -9.30   10.52
  -1  -6 -15    1.42    4.30
   1   6  15    0.25    4.29
  -1  -6 -17   17.34    7.52
   1   6  17   19.78    8.07
  -1   6 -17    2.93   13.85
  -1  -6 -17   13.44    6.32
   1   6  17   18.72    6.16
  -1  -6 -19   16.02    8.01
   1   6  19    3.87    7.36
   1   6  19   25.39    6.69
  -1  -6 -19    1.60    6.83
   1   6  21   -1.09    7.89
  -1  -6 -21    3.07    8.32
   1  -7 -16    3.14    3.44
  -1   7  16    3.13    3.47
   1  -7 -16    3.65    4.76
  -1   7  16    1.86    4.85
  -1  -7  16    4.75   12.82
   1   7 -16   11.57    9.61
  -1   7  14   11.78    5.00
  -1  -7  14    5.38    6.61
   1   7 -14    2.09    6.74
  -1   7  14    7.73    3.13
   1  -7 -14    4.51    3.28
   1  -7 -14    0.59    3.74
  -1  -7  12    2.21    6.51
   1   7 -12   -2.37    5.19
  -1   7  12   -1.64    3.45
   1  -7 -12    2.75    4.12
  -1   7  12    3.84    2.73
   1  -7 -12    1.86    2.91
  -1  -7  10    1.92    5.82
   1   7 -10    4.67    4.83
  -1   7  10    5.71    2.55
   1  -7 -10   -0.89    2.53
   1  -7 -10   11.17    4.23
  -1   7  10   18.42    5.46
  -1  -7   8   13.70    4.22
   1   7  -8   26.71    3.74
  -1   7   8   11.56    2.20
  -1   7   8   28.03    4.85
  -1  -7   6   13.39    3.23
   1   7  -6   15.18    2.89
   1  -7  -6    4.09    2.58
   1  -7  -6    5.91    2.10
  -1   7   6    8.73    2.07
  -1   7   6   18.36    3.76
  -1  -7   4    6.81    2.68
  -1   7   4    8.26    2.64
   1  -7  -4   12.47    3.03
   1  -7  -4   13.66    2.13
  -1  -7   2   21.37    2.54
  -1   7   2   30.79    2.32
  -1   7   2   21.03    3.10
   1  -7  -2   28.42    2.37
   1   7  -2   32.60    3.09
  -1  -7   2   15.12    2.62
   1  -7  -2   32.64    3.24
  -1  -7   0   30.61    2.63
  -1  -7   0   28.78    2.86
  -1   7   0   32.49    3.28
   1   7   0   34.08    3.14
   1  -7   0   30.75    2.94
  -1  -7  -2   11.48    2.08
   1   7   2   15.34    2.00
   1   7   2   26.08    3.38
  -1  -7  -2   12.24    2.59
   1  -7   2   21.06    2.53
  -1   7  -2   25.23    2.46
  -1   7  -2   18.42    2.94
   1  -7   2   13.94    2.52
   1   7   4    7.04    1.81
   1   7   4   10.71    2.68
  -1  -7  -4    7.39    2.54
  -1   7  -4   10.30    2.36
   1  -7   4   10.07    2.92
  -1  -7  -6   -0.60    1.96
   1   7   6    1.17    2.95
  -1  -7  -6    2.40    2.96
  -1   7  -6    3.60    2.62
   1  -7   6   -0.16    2.65
   1   7   8    4.14    1.95
   1   7   8    2.52    3.94
  -1  -7  -8    1.79    3.22
   1  -7   8   -2.86    4.80
  -1   7  -8    4.57    3.68
   1   7  10   10.48    2.69
   1   7  10    3.98    4.13
  -1  -7 -10   17.96    5.01
  -1   7 -10   16.36    6.12
   1  -7  10   24.55    6.28
   1   7  12    1.07    4.06
   1   7  12    0.95    2.68
  -1  -7 -12    2.59    3.20
  -1  -7 -12    3.25    4.20
  -1   7 -12    4.39    6.36
   1  -7  12    2.32    6.84
   1  -7  14    2.25    9.32
  -1   7 -14    8.07    7.40
   1   7  14   -0.59    4.00
  -1  -7 -14   15.60    5.20
   1   7  14   14.36    3.13
  -1  -7 -14    7.73    3.44
  -1   7 -16   -4.60   10.54
   1  -7  16    2.58   12.72
   1  -8  -3    1.35    1.65
  -1   8   3    1.42    1.36
   1   8  -3   -0.50    1.51
  -1   8   3    0.31    1.81
   1  -8  -3    2.47    1.88
   1   8  -3    1.19    1.51
  -1  -8   3    1.43    1.54
  -1  -8   3    2.15    1.87
  -1  -8   1    1.54    1.35
   1  -8  -1    0.73    1.46
   1   8  -1    3.27    1.72
  -1   8   1    4.12    1.71
   1  -8  -1   -1.17    1.41
  -1  -8   1    0.76    1.84
   1   8  -1    1.30    1.43
  -1   8   1    0.21    1.21
  -1   8  -1   -0.85    1.34
   1  -8   1    0.26    1.65
  -1  -8  -1    0.23    1.62
  -1   8  -1    3.74    1.55
   1  -8   1    3.73    1.96
   1   8   1   -0.11    1.25
  -1  -8  -1   -0.32    1.68
  -1  -8  -3    0.89    1.95
   1   8   3    0.30    1.98
  -1   8  -3    2.34    2.57
  -2   1   7  385.79   15.74
   2  -1  -7  246.91   14.27
  -2   1   5   23.03    7.32
   2  -1  -5   18.03    7.17
  -2   1   3 6058.69   18.77
   2   1  -3 6360.34   23.73
   2  -1  -1    2.72    2.07
  -2   1   1    6.65    2.09
   2   1   1   32.17    2.40
  -2  -1  -1   30.45    2.47
  -2  -1  -3  914.85   10.60
   2   1   3 1040.10   10.88
   2  -2 -12  104.68   15.71
  -2   2  12   42.43   14.22
   2  -2 -10 1955.76   31.98
  -2   2  10 2081.73   33.27
   2  -2  -8 2796.79   30.97
  -2   2   8 2392.75   29.36
  -2  -2   6  121.01   15.00
   2  -2  -6  130.41    7.19
  -2   2   6  118.66    7.21
   2  -2  -6  133.21    7.66
   2   2  -4 1134.44   12.63
  -2  -2   4  846.10   11.13
   2   2  -2  708.14    6.49
  -2  -2   2  646.61    6.34
   2  -2   0  206.75    3.07
   2   2   0  261.76    3.29
  -2   2  -2 1433.18   12.40
  -2  -2  -2 1605.52   14.33
   2  -2   4 1302.40   21.03
  -2   2  -4 1713.88   23.59
   2   2   4 1361.31   10.09
  -2  -2  -4 1311.61   10.03
   2   2   4 1304.31   19.76
  -2  -2  -6 2883.81   21.06
   2   2   6 4292.44   25.33
   2  -3 -17  163.30   18.00
  -2   3  17   78.28   15.36
  -2   3  15   51.23   12.87
   2  -3 -15   39.06   11.89
   2  -3 -13   63.36   10.89
  -2   3  13   49.05   11.77
  -2   3  11  161.38   11.74
   2  -3 -11  151.10   11.72
  -2  -3   9  -35.87   13.26
   2   3  -9   -7.98   14.80
   2   3  -7   89.21    9.60
  -2  -3   7  115.49   10.17
  -2   3   7   98.71    5.24
  -2   3   7   82.72    7.17
   2  -3  -7   94.55    7.66
   2   3  -5 1011.61   14.05
  -2  -3   5  754.59   12.75
  -2  -3   3 1082.97    9.43
   2   3  -3 1141.54    9.61
   2   3  -1   31.97    2.70
   2  -3  -1   32.88    2.23
  -2  -3   1   29.93    2.61
  -2   3   1   35.11    2.14
   2  -3  -1   32.93    2.81
  -2   3   1   33.43    2.89
  -2  -3  -1   92.31    2.90
   2  -3   1   60.32    3.32
   2  -3   3  200.08    7.49
   2   3   3  194.22    7.57
  -2  -3  -3  282.56    8.53
  -2  -3  -3  210.83    4.54
   2  -3   5  180.12    9.87
  -2  -3  -5  199.98    5.78
   2   3   5  208.46    5.50
  -2  -3  -5  194.63    9.19
  -2   3  -7   -6.40   13.15
   2  -3   7   -0.31   13.40
  -2  -3  -7  -10.56    7.36
   2   3   7   -6.81    7.20
  -2  -3  -9   25.24    7.62
  -2  -3  -9   13.59   10.63
   2   3   9   41.99   11.50
   2  -4 -24   40.22   13.49
  -2   4  22   17.68   12.39
   2  -4 -22    9.66   12.61
  -2   4  20   22.66   13.27
   2  -4 -20    7.59   12.52
   2  -4 -18   53.28   13.14
  -2   4  18   44.06   12.51
   2  -4 -16   84.14   12.22
  -2   4  16  127.52   14.08
   2  -4 -14    7.98    7.92
  -2   4  14   12.62    8.93
   2  -4 -12  250.73   12.69
   2   4 -12  488.96   21.76
   2   4 -10   19.31   13.32
  -2  -4  10   11.41   15.41
  -2   4  10    9.39    4.63
   2  -4 -10   -1.18    4.54
   2  -4 -10   -2.33    5.44
  -2   4  10    1.86    4.99
   2  -4  -8   87.83    7.56
  -2   4   8   73.52    7.21
   2   4  -6    3.57    5.41
  -2  -4   6    0.72    6.19
   2  -4  -6    0.87    4.09
  -2   4   6   -0.59    4.08
  -2   4   4  308.26    5.23
   2   4  -4  395.12    6.85
  -2   4   2   38.68    2.25
  -2   4   2   30.92    3.13
   2  -4  -2   38.58    3.26
  -2  -4   0    8.92    1.99
   2   4   0   17.88    2.01
   2   4   0   13.42    2.13
   2  -4   0   19.57    2.68
  -2  -4  -2  120.04    3.50
   2   4   2  108.10    3.26
   2   4   4  264.04    9.52
  -2  -4  -4  303.85   11.08
  -2   4  -4  294.04    7.27
   2  -4   6   78.29    8.34
  -2   4  -6   68.73    7.67
  -2  -4  -6   46.15    3.85
   2   4   6   66.20    5.96
  -2  -4  -6   54.77    6.04
   2   4   8   -0.72    3.30
  -2  -4  -8    9.86    3.94
  -2   4  -8   13.25   12.23
   2  -4   8   22.69   14.81
   2   4   8   -1.96    5.29
  -2  -4  -8   19.88    6.27
  -2  -4 -10   33.22    5.60
  -2   4 -10   15.00   14.36
   2  -4  10   51.21   14.67
  -2  -4 -10   46.15    9.26
   2   4  10   38.18    9.05
  -2  -4 -12   23.52    8.10
   2   4  12   12.22   10.09
  -2  -4 -12    6.83    9.58
  -2  -4 -14   41.13   14.10
   2   4  14   80.82   14.61
  -2  -4 -16   68.85   14.89
   2  -5 -25   19.56   11.53
  -2   5  25   16.26   11.19
  -2   5  23   -4.67    8.43
   2  -5 -23   -7.38    9.01
  -2   5  21   -1.99    9.35
   2  -5 -21   13.28    9.81
   2  -5 -19   11.52    8.47
  -2   5  19   -5.15    8.14
  -2   5  17   -5.30    7.45
   2  -5 -17    0.70    7.01
   2   5 -15  -12.50   15.08
  -2  -5  15   32.40   15.20
  -2   5  15   12.27    7.83
   2  -5 -15   23.85    7.98
   2  -5 -15   -6.87    5.52
  -2   5  15    3.59    6.92
  -2  -5  13    3.29   19.05
   2   5 -13   16.91   18.36
   2  -5 -13   12.29    5.67
  -2   5  13   14.26    6.27
  -2   5  13   24.03    6.76
   2   5 -11   73.30   10.81
  -2  -5  11   38.44   10.79
  -2   5  11   54.02    5.11
  -2   5  11   43.54    7.25
  -2   5   9  268.10   12.34
   2  -5  -9  256.73   13.72
  -2   5   9  286.60    7.44
   2   5  -9  466.57   13.36
  -2  -5   9  330.87   12.72
   2   5  -7   51.24    5.85
  -2  -5   7   37.84    6.80
   2  -5  -7   45.49    3.53
  -2   5   7   21.46    3.13
  -2   5   7   53.02    6.34
  -2  -5   5   13.70    3.56
   2   5  -5   17.78    3.62
   2  -5  -5   15.48    2.91
  -2   5   5    8.47    3.61
  -2   5   3    2.43    1.88
   2  -5  -3    4.78    1.95
  -2   5   3   10.62    3.05
   2  -5  -3    7.27    2.75
   2   5  -3    1.77    2.39
  -2  -5   3    9.62    2.76
   2   5  -3    5.49    1.80
  -2   5   1    4.89    1.86
   2   5  -1    6.96    2.26
  -2  -5   1   11.73    2.44
   2  -5  -1    5.01    1.91
   2   5  -1    5.19    2.07
  -2   5   1    4.93    2.28
   2  -5  -1    4.60    2.16
  -2  -5   1   12.09    2.07
   2   5   1   13.30    2.10
  -2  -5  -1   11.74    2.16
  -2   5  -1   10.15    2.18
   2  -5   1    1.24    2.14
  -2   5  -1    6.23    2.70
   2   5   3   29.41    2.69
  -2  -5  -3   29.92    2.76
   2   5   3   37.05    4.28
  -2  -5  -3   21.97    3.73
  -2   5  -3   28.96    3.47
   2  -5   3   27.79    3.49
   2  -5   5  123.25    6.77
   2   5   5  126.95    9.10
  -2  -5  -5  131.18    8.34
   2   5   5  125.35    4.49
  -2  -5  -5   75.89    4.11
  -2  -5  -7  459.69    8.40
   2   5   7  449.36    8.43
  -2   5  -7  569.59   14.02
  -2  -5  -7  453.50   14.18
   2   5   9   -0.29    3.74
  -2  -5  -9    4.92    4.36
   2   5   9    9.33    6.35
  -2  -5  -9   18.51    6.07
   2  -5   9   16.27    9.11
   2   5  11    9.92    4.65
  -2  -5 -11    7.42    4.45
   2   5  11   31.77    8.37
  -2   5 -11    3.58   17.86
   2  -5  11   32.47   17.38
   2   5  13   11.16    9.26
  -2  -5 -13   15.82    8.51
   2  -5  13   30.03   15.40
  -2   5 -13    3.32   15.06
  -2  -5 -13   10.69    5.50
   2   5  13    9.91    6.00
  -2  -5 -15   -1.52    8.60
   2   5  15   16.40    9.44
   2   5  17   -5.74   10.77
  -2  -5 -17   20.99   11.27
  -2  -5 -17   -0.35    7.82
  -2  -5 -19   33.88   11.43
   2   5  19    8.81   10.98
  -2  -5 -21   28.09   12.04
   2  -6 -22   -2.89    6.81
  -2   6  22   14.08    8.47
  -2   6  20    4.50    6.74
   2  -6 -20   -0.82    6.39
   2  -6 -20   -0.80    6.55
   2  -6 -18    2.09    5.57
  -2   6  18   -0.75    5.92
   2   6 -18   -6.47   12.30
  -2  -6  18   -0.75   12.00
   2  -6 -18    9.44    6.35
  -2   6  16    9.93    5.55
   2  -6 -16    9.24    5.54
   2   6 -16   22.41   16.72
  -2  -6  16   11.22   12.17
   2  -6 -16    1.48    4.74
  -2   6  16    6.79    4.79
   2  -6 -14   -1.37    3.76
  -2   6  14    4.98    3.78
   2  -6 -14    1.12    4.68
  -2   6  14   -1.57    3.62
  -2  -6  14   22.06   12.97
   2   6 -14    5.09    9.07
  -2  -6  12    7.91    7.59
   2   6 -12   12.53    7.56
   2  -6 -12   22.39    5.94
  -2   6  12   10.11    4.93
  -2   6  12    9.33    3.22
   2  -6 -12   16.62    3.73
   2   6 -10   26.05    6.97
  -2  -6  10   -0.57    6.65
  -2   6  10   19.58    6.27
   2  -6 -10   11.59    5.87
  -2   6  10   14.33    3.41
   2  -6 -10   18.37    3.67
  -2  -6   8    0.23    5.61
   2   6  -8   25.02    4.64
   2  -6  -8   15.26    2.97
  -2   6   8   22.24    3.05
  -2   6   8    4.17    4.55
   2  -6  -8   20.64    4.70
  -2   6   6   75.21    3.78
   2  -6  -6   88.16    4.12
  -2  -6   6   78.67    4.76
   2  -6  -6   77.35    5.64
  -2   6   6   87.11    6.48
  -2   6   4   20.81    2.33
   2  -6  -4   16.61    2.62
   2  -6  -4   19.05    3.48
  -2   6   4   18.47    3.46
   2   6  -4   29.03    3.24
  -2  -6   4   23.75    3.53
   2   6  -2    3.79    2.48
  -2   6   2    3.92    1.95
  -2  -6   2    2.88    2.55
   2  -6  -2    3.47    1.98
   2  -6  -2    3.95    2.51
  -2  -6   2    3.18    2.13
   2   6  -2    3.63    1.93
  -2  -6   0  292.68    7.35
  -2   6   0  240.95    5.27
   2   6   2    3.77    1.90
   2   6   2    3.49    2.45
  -2  -6  -2   -1.68    2.06
  -2   6  -2   -0.44    2.04
   2  -6   2   -5.75    2.37
  -2   6  -2   -1.92    2.12
  -2  -6  -4   10.88    2.48
   2   6   4   13.86    2.31
  -2   6  -4    1.02    2.94
   2  -6   4    9.47    3.35
  -2  -6  -4    6.20    3.32
   2   6   4   10.40    3.61
  -2   6  -6   12.29    4.26
  -2  -6  -6   16.40    3.06
   2   6   6    8.33    2.53
  -2  -6  -6   26.15    5.03
   2   6   6    9.16    5.12
  -2  -6  -8    4.05    4.28
   2   6   8    7.33    4.31
   2   6   8    4.67    2.63
  -2  -6  -8    4.64    2.80
  -2   6  -8   12.09    6.27
   2  -6   8   16.85    6.88
  -2  -6 -10    1.87    3.29
   2   6  10    0.49    2.79
  -2  -6 -10   17.37    5.63
   2   6  10   -1.71    4.08
  -2   6 -10   29.44    7.42
   2  -6  10   25.53    8.29
  -2  -6 -12   13.25    3.96
   2   6  12   18.80    3.44
   2   6  12   14.13    5.98
  -2  -6 -12    6.14    5.51
  -2   6 -12   13.27    9.02
   2  -6  12   16.99   11.87
  -2  -6 -14   -0.21    3.98
   2   6  14   -5.44    5.49
   2  -6  14  -16.95   10.93
  -2   6 -14    5.42   15.49
   2   6  16   -1.59    6.47
  -2  -6 -16    8.49    7.33
  -2   6 -16   28.57   13.30
  -2  -6 -16   10.82    5.24
   2   6  18    9.38    8.07
  -2  -6 -18    2.59    6.86
   2   6  18    0.38    5.84
  -2  -6 -18    5.91    6.72
  -2  -6 -20   15.09    9.65
   2   6  20   -6.50    8.03
  -2  -6 -20   -0.85    7.31
   2   7 -17    8.73   11.80
  -2  -7  17    4.41   13.67
  -2   7  15    9.82    4.98
   2   7 -15    0.89    7.38
  -2  -7  15   21.88    8.23
   2  -7 -15    1.25    3.13
  -2   7  15   11.32    3.31
   2  -7 -15    4.93    4.57
  -2  -7  13   14.06    6.96
   2   7 -13   19.85    6.58
   2  -7 -13    9.78    4.64
  -2   7  13    6.26    4.37
  -2   7  13   13.85    3.05
   2  -7 -13    6.89    3.43
  -2  -7  11   14.99    6.60
   2   7 -11   -1.32    5.53
  -2   7  11   27.43    6.46
   2  -7 -11    5.58    4.06
  -2   7  11   14.15    2.89
   2  -7 -11    9.81    3.04
  -2  -7   9   22.57    5.53
   2  -7  -9   16.50    2.83
  -2   7   9   10.05    4.09
   2  -7  -9    5.28    3.79
   2  -7  -7   26.33    4.11
  -2  -7   7   15.78    3.48
  -2   7   5    2.17    1.73
   2  -7  -5    2.31    1.92
   2  -7  -5    2.09    2.40
  -2   7   5    3.76    2.33
   2   7  -5   -0.98    2.22
  -2  -7   5    6.64    2.70
   2  -7  -3    3.32    1.86
   2  -7  -3   -2.23    1.34
   2   7  -3    3.22    1.89
  -2  -7   3    5.30    2.18
  -2   7   1   10.06    1.88
   2  -7  -1    4.43    1.88
   2   7  -1    7.70    1.82
  -2  -7   1    2.39    2.14
   2   7  -1    9.34    2.09
   2  -7  -1    1.94    1.71
  -2   7   1   12.52    2.60
  -2  -7   1    0.86    1.50
   2  -7   1   18.78    2.99
  -2  -7  -1   29.91    3.09
  -2   7  -1   27.48    2.47
   2  -7   1   28.91    2.69
   2  -7   3    3.40    2.52
  -2   7  -3   11.78    2.18
  -2  -7  -3   11.36    2.94
   2   7   3   -0.24    1.84
   2   7   3   11.83    1.98
  -2  -7  -3    5.70    1.91
  -2  -7  -5    1.15    1.90
   2   7   5    3.18    1.72
   2   7   5    1.41    3.17
  -2  -7  -5    8.37    3.20
   2  -7   5    1.06    2.79
  -2   7  -5    1.91    2.60
   2   7   7    2.81    1.78
  -2  -7  -7   -0.54    2.26
  -2  -7  -7    3.87    3.16
   2   7   7   13.59    4.39
   2  -7   7    1.27    3.95
  -2  -7  -9    5.37    2.42
   2   7   9    2.44    2.00
  -2  -7  -9    5.14    4.45
   2   7   9    8.99    4.07
   2  -7   9    0.63    5.24
   2   7  11    6.66    4.61
   2  -7  11    2.90    6.48
  -2  -7 -11   -1.60    2.66
   2   7  11    7.58    2.69
  -2  -7 -11    1.04    4.42
  -2   7 -11    9.86    5.74
  -2   7 -13    8.22    6.81
   2  -7  13   12.04    7.93
  -2  -7 -13   10.13    4.92
   2   7  13    8.58    4.72
   2   7  13    4.52    3.00
  -2  -7 -13    1.84    3.19
   2  -7  15   -0.83   14.66
  -2   7 -15    8.85   11.89
   2   7  15    7.72    3.44
  -2  -7 -15    2.83    3.46
   2   7  15    8.21    5.43
  -2  -7 -15    1.26    4.38
   2  -8  -2    2.05    1.60
  -2   8   2    2.85    1.35
   2   8  -2    1.16    1.65
  -2   8   2    0.77    1.60
   2  -8  -2   -0.26    1.21
   2   8  -2    2.17    1.54
  -2  -8   2    4.84    1.77
   2   8   0    4.68    1.51
   2  -8   0    0.48    1.79
  -2   8   0    3.96    1.58
  -2  -8   0    4.77    1.78
   2  -8   0    0.75    1.47
   2   8   0    4.72    1.87
  -2   8  -2    1.70    1.60
  -2  -8  -2    0.52    1.69
   2   8   2    2.23    2.13
   2  -8   2    5.83    2.13
  -2   8  -2    3.31    2.02
   3   0  -5   41.99   10.20
  -3   0   5   14.53    9.89
   3  -1 -10  335.61   17.85
  -3   1  10  309.30   17.30
  -3   1   8   -2.61   10.69
   3  -1  -8   69.15   11.10
  -3   1   6  214.84    9.61
   3  -1  -6  218.36    9.46
   3   1  -4 9999.00   45.90
  -3  -1   4 6796.23   37.93
   3  -1  -2    4.19    2.62
  -3   1   2    0.42    2.68
  -3   1   2    6.68    2.26
   3   1  -2    7.79    2.90
  -3  -1   2   10.39    3.05
   3  -1   0  117.91    3.21
  -3   1   0  128.77    2.97
  -3  -1  -2 2163.27   10.06
   3   1   2 2156.57   10.16
  -3   2  15   37.99   13.61
   3  -2 -15   50.55   13.78
  -3   2  13   72.21   14.10
   3  -2 -13   95.39   13.63
   3  -2 -11 1225.43   26.31
  -3   2  11 1259.20   27.80
   3  -2  -9 1140.79   20.92
  -3   2   9  915.74   19.57
  -3  -2   7  -27.04   13.63
   3   2  -7   19.68   14.71
  -3   2   5   66.38    6.13
   3  -2  -5   87.31    6.17
  -3   2   5   83.87    4.70
   3   2  -5   95.04    8.30
  -3  -2   5   93.20    8.65
   3   2  -3  321.19    5.21
   3  -2  -3  366.31    7.27
   3  -2  -1   42.97    2.46
  -3   2   1   34.90    2.42
  -3  -2  -1 1463.32   12.17
   3   2   1 1225.32   11.41
   3  -2   3  422.07   15.13
  -3   2  -3  409.56   13.88
  -3  -2  -3  506.72    6.60
   3   2   3  525.93    6.72
  -3  -2  -3  433.55   12.41
   3   2   5 1236.35   11.95
  -3  -2  -5 1106.48   11.35
   3  -3 -20   53.78   16.71
  -3   3  18   20.28   14.14
   3  -3 -18   86.85   15.72
   3  -3 -16   15.45   11.30
  -3   3  16   40.54   12.60
   3  -3 -14   34.95   10.21
  -3   3  14   19.06   10.15
   3  -3 -12   35.45    8.32
  -3   3  12   40.67    8.76
   3  -3 -10  263.66   11.46
   3   3 -10  384.41   19.82
   3  -3  -8   10.35    5.88
  -3   3   8   12.94    5.31
  -3   3   6   86.77    6.79
   3  -3  -6  108.56    7.46
  -3   3   6   82.41    4.36
   3  -3  -6  105.13    4.76
   3  -3  -4   47.01    3.08
  -3   3   4   37.67    3.98
   3  -3  -4   50.16    4.20
   3   3  -4   49.03    4.21
  -3  -3   4   26.21    4.05
  -3  -3   2 1184.42   10.44
   3  -3  -2 1019.45   11.27
  -3  -3   0  354.66    5.85
  -3   3   0  365.32    7.92
  -3   3  -2   12.48    3.50
   3  -3   2    2.72    3.88
   3   3   2    8.46    4.03
   3   3   2   10.13    2.63
  -3  -3  -4 1084.51    9.59
   3   3   4  989.06    9.46
  -3  -3  -4  990.37   15.98
   3   3   6  131.62   10.74
  -3  -3  -6  122.29   10.62
  -3   3  -6  118.75   16.36
   3   3   8  577.16   11.74
  -3  -3  -8  512.46   10.52
  -3  -3 -10    3.32    8.07
   3  -4 -25   42.57   13.12
   3  -4 -23   13.46   11.98
  -3   4  23    3.31   11.16
   3  -4 -21    7.61   11.02
  -3   4  21    6.29   12.23
  -3   4  19    6.15   11.04
   3  -4 -19    3.38   10.09
   3  -4 -17   14.34   10.29
  -3   4  17   29.51   11.28
   3  -4 -15  391.96   17.99
  -3   4  15  266.78   16.26
  -3   4  13   71.37    9.06
  -3  -4  13   37.04   16.28
   3  -4 -11   73.57    7.97
  -3  -4  11  136.31   19.19
  -3   4  11   67.17    7.32
   3  -4 -11  124.23    7.81
  -3   4  11   83.69    6.90
  -3   4   9   45.95    4.36
  -3   4   9   50.18    6.81
   3  -4  -9   40.06    6.30
  -3   4   7  202.55    5.62
   3   4  -7  319.53   10.15
   3  -4  -5   40.41    4.10
   3  -4  -5   33.45    2.93
  -3   4   5   33.87    4.24
  -3   4   3    2.20    1.66
   3  -4  -3    9.29    1.94
   3   4  -3    7.05    2.49
   3  -4  -3    8.73    2.78
   3  -4  -1   43.61    3.05
   3  -4  -1   42.10    2.29
   3   4  -1   42.74    2.52
  -3  -4  -1  525.80    6.15
  -3  -4  -1  377.64    7.33
  -3   4  -3    4.32    3.07
   3  -4   3   17.51    4.03
  -3  -4  -5    9.77    5.03
   3   4   5   15.04    4.40
  -3  -4  -5   15.64    3.00
   3   4   5   20.48    2.97
  -3   4  -5   21.86    6.42
   3   4   7   18.21    3.57
  -3  -4  -7   17.53    3.83
  -3   4  -7   32.96    8.52
   3  -4   7   48.70   11.99
  -3  -4  -7   33.39    6.63
   3   4   7   14.14    6.38
   3  -4   9   24.67   13.51
  -3   4  -9    1.22   13.85
  -3  -4  -9   -7.09    3.94
   3   4   9   -1.47    4.11
   3   4   9    1.02    7.87
   3   4  11   35.08    7.05
  -3  -4 -11   22.30    7.10
  -3  -4 -11   31.21   10.47
   3   4  11   10.42   11.13
   3   4  13  559.87   15.21
  -3  -4 -13  336.49   13.76
  -3   5  26    2.64   11.26
   3  -5 -26    4.89   10.58
  -3   5  24   23.44   10.68
   3  -5 -24    5.42    9.07
   3  -5 -22   22.96    9.71
  -3   5  22   19.53    9.91
  -3   5  20   20.32    9.10
   3  -5 -20    7.64    8.57
   3  -5 -18   92.00   10.43
  -3   5  18   45.33   10.36
   3   5 -16   33.84   16.85
   3  -5 -16   26.12    8.64
   3  -5 -16   24.01    7.22
  -3   5  16   14.28    6.63
   3  -5 -14   71.15    8.43
  -3  -5  14   56.83   16.79
   3   5 -14  110.23   21.14
  -3   5  14   97.44    8.26
   3  -5 -14   56.66    7.68
  -3   5  14   57.04    8.08
  -3  -5  12   25.16   13.29
   3  -5 -12   27.39    5.30
  -3   5  12   21.41    5.17
  -3   5  12    5.21    5.31
   3  -5 -12   16.95    6.51
  -3   5  10   95.39    8.80
   3  -5 -10   72.30    5.64
  -3   5  10   57.85    4.99
   3  -5 -10   89.33    9.92
  -3  -5   8   22.99    7.78
   3   5  -8   64.85    7.68
   3  -5  -8   53.42    4.28
  -3   5   8   29.34    3.81
  -3   5   8   61.80    7.20
   3   5  -6  270.35    6.88
   3  -5  -6  264.32    9.24
  -3   5   6  266.86    9.60
   3   5  -4    0.72    2.80
  -3  -5   4    6.92    3.09
  -3   5   4    4.29    2.97
   3  -5  -4    3.97    2.96
   3  -5  -4    3.09    2.08
   3  -5  -2   28.12    2.33
  -3  -5   2   29.62    2.70
   3  -5  -2   33.98    3.28
   3   5   0   14.14    2.10
  -3  -5   0   13.67    2.45
   3   5   0    8.48    2.42
  -3   5   0    5.77    2.42
   3  -5   0   12.18    2.85
  -3  -5  -2    5.84    2.22
   3   5   2    8.62    2.22
  -3  -5  -2   14.41    3.14
   3  -5   2    4.06    3.15
   3   5   4   52.20    7.18
   3  -5   4   40.82    5.15
   3   5   6  406.40    7.57
   3  -5   6  400.26   12.17
  -3  -5  -6  531.48   14.65
   3   5   8   43.18    6.98
  -3   5  -8   42.08    8.90
   3  -5   8   51.88    9.55
  -3  -5  -8   39.18    4.61
  -3  -5 -10   10.47    4.55
   3   5  10   18.08    8.50
  -3   5 -10  -11.01   13.26
   3  -5  10    5.20   16.83
  -3  -5 -12   39.15    5.67
   3   5  12   44.20   10.19
  -3  -5 -12   36.53    9.17
   3  -5  12   14.26   14.40
  -3   5 -12    9.34   14.71
  -3  -5 -14   -2.97    9.02
   3   5  14   -0.77    9.33
   3   5  14    1.98    6.15
  -3  -5 -14   -2.46    6.30
   3   5  16   15.36   11.78
  -3  -5 -16   11.33   10.71
  -3  -5 -16   36.40    8.62
   3   5  16   26.11    7.42
  -3  -5 -18   11.52   11.28
  -3   6  21   10.05    7.19
   3  -6 -21   14.24    6.96
   3  -6 -19    1.44    5.75
  -3   6  19   10.87    6.68
   3   6 -19   23.87   14.49
   3  -6 -19   11.41    7.35
  -3   6  17    7.06    5.67
   3  -6 -17   -1.20    4.62
   3   6 -17   12.31   14.56
  -3  -6  17   19.66   13.06
   3  -6 -17    3.61    5.78
  -3   6  17    4.15    5.50
  -3   6  15    4.37    4.16
   3  -6 -15    4.09    5.54
   3  -6 -15   -1.10    4.04
   3   6 -15    7.81   11.97
  -3  -6  15   -9.46   14.30
  -3  -6  13   34.31    8.87
   3   6 -13   46.82    9.00
  -3   6  13   12.71    4.94
   3  -6 -13   24.01    6.31
   3  -6 -13   29.05    4.21
  -3   6  13   35.28    4.15
  -3  -6  11   30.69    7.88
  -3   6  11   10.14    3.14
   3  -6 -11    9.27    3.66
  -3   6  11   28.53    6.02
   3  -6 -11   18.58    5.81
  -3   6   9   49.36    3.92
  -3  -6   9  100.27    8.22
   3  -6  -7    7.48    2.86
  -3   6   7   20.01    2.73
  -3   6   7   31.15    4.67
   3  -6  -7   25.60    4.50
   3   6  -5   36.74    3.71
  -3   6   5   24.03    3.90
   3  -6  -5   34.82    2.82
   3  -6  -5   32.18    4.21
  -3  -6   3   82.20    4.42
  -3  -6   3  136.84    4.47
  -3  -6   1   38.74    3.08
   3  -6  -1   45.13    3.59
   3   6  -1   44.15    3.30
  -3   6   1   44.86    2.52
  -3  -6   1   52.02    3.52
   3   6   1   15.49    2.17
  -3   6  -1   13.32    2.28
  -3   6  -1   24.10    3.48
   3  -6   1   19.78    2.56
  -3  -6  -1   25.12    2.47
   3  -6   3   18.99    3.48
  -3   6  -3   28.08    3.35
   3   6   3   23.72    3.81
  -3  -6  -3   25.15    3.61
  -3  -6  -3   24.51    2.67
   3   6   3   30.88    2.62
   3  -6   5    5.72    4.07
  -3   6  -5   16.22    3.41
   3   6   5    6.73    2.41
   3   6   5    7.37    4.56
  -3  -6  -5    6.56    4.17
  -3  -6  -7   22.36    5.31
   3   6   7   -0.38    3.74
   3   6   7   13.23    2.77
  -3  -6  -7   10.33    2.99
   3  -6   7   -1.03    5.90
  -3   6  -7   18.66    5.53
  -3  -6  -9   19.45    5.33
   3   6   9   20.45    4.79
   3  -6   9   19.35    7.49
  -3  -6  -9   24.17    3.72
  -3   6  -9    9.78    6.27
  -3  -6 -11    9.95    3.83
   3   6  11   20.75    3.75
   3   6  11    7.79    5.47
  -3  -6 -11   22.52    5.90
  -3   6 -11    8.41    7.78
   3  -6  11   -0.93    9.70
  -3  -6 -13    2.49    3.39
   3   6  13    3.46    3.33
   3   6  13   -2.66    5.36
  -3   6 -13    4.99   13.80
   3  -6  13    0.65   12.33
   3   6  15    7.81    7.49
  -3  -6 -15   -5.96    6.70
   3  -6  15    8.70   11.45
  -3   6 -15   -0.64   12.30
  -3  -6 -15    1.96    4.46
   3   6  15   -5.39    4.11
   3   6  17    2.71    8.72
  -3  -6 -17   13.88    8.50
  -3  -6 -17    8.22    5.93
   3   6  19   -9.74    6.22
  -3  -6 -19   -7.73    7.73
  -3  -6 -19   -2.93    6.75
  -3   7  16    7.66    4.69
  -3  -7  16    0.62    9.38
   3   7 -16   23.24    8.10
   3  -7 -16    7.04    5.04
  -3   7  16    3.91    3.34
   3  -7 -16    6.01    3.57
   3   7 -14    0.80    5.92
  -3  -7  14   -2.91    6.53
  -3   7  14    1.78    3.85
   3  -7 -14    0.59    3.83
  -3   7  14    3.45    2.80
   3  -7 -14    1.56    3.23
  -3  -7  12    8.78    6.00
   3   7 -12   15.38    6.35
   3  -7 -12   14.56    4.48
  -3   7  12    0.66    4.39
  -3   7  12   12.22    2.90
   3  -7 -12    2.63    2.95
  -3  -7  10   -8.42    4.88
  -3   7  10   -1.02    2.64
   3  -7 -10    2.90    3.55
   3  -7 -10   -0.14    2.39
   3   7  -8   15.77    3.37
  -3  -7   8   11.48    3.95
   3  -7  -8    8.94    2.71
  -3   7   8    8.70    2.21
  -3   7   8    7.82    3.10
   3  -7  -8    5.28    3.18
  -3   7   6    9.22    2.01
   3  -7  -6    4.11    2.05
   3  -7  -6   11.47    2.92
  -3   7   6    1.18    2.29
  -3  -7   6    4.98    2.96
   3   7  -6    9.45    2.84
   3  -7  -4   13.38    2.11
  -3   7   4   21.02    3.36
   3  -7  -4    9.92    2.76
   3   7  -4   12.46    2.47
   3   7  -4   11.97    2.15
  -3  -7   4   17.95    2.74
   3  -7  -2   19.87    2.11
  -3  -7   2   20.75    2.76
   3  -7  -2   23.20    2.98
   3   7  -2   16.58    2.18
  -3   7   2   16.93    2.77
  -3  -7   2   14.57    2.27
  -3   7   2   22.32    1.90
   3   7   0   51.10    3.78
   3  -7   0   37.18    3.66
  -3   7   0   33.51    3.13
  -3  -7   0   41.28    2.63
  -3   7   0   49.66    2.93
   3  -7   0   46.17    3.03
  -3   7  -2    3.67    1.82
  -3  -7  -2   -0.24    1.77
   3   7   2    6.17    2.19
  -3   7  -2   -1.16    2.08
   3  -7   2    1.41    2.13
  -3  -7  -4   11.52    2.15
   3   7   4   16.43    2.17
  -3  -7  -4   17.37    3.28
   3   7   4    9.30    2.99
  -3   7  -4   15.68    2.83
   3  -7   4    5.43    2.58
  -3  -7  -6    6.36    2.31
  -3   7  -6    1.58    2.40
   3  -7   6    2.74    3.81
  -3  -7  -6    0.80    2.74
   3   7   6   10.31    4.12
   3   7   6    7.40    2.08
   3  -7   8   -2.68    5.29
  -3   7  -8    4.30    4.33
   3   7   8    0.70    1.88
  -3  -7  -8    5.84    2.59
   3   7   8    4.93    3.77
  -3  -7  -8   -1.00    3.70
   3  -7  10    6.06    6.49
   3   7  10   -2.42    3.25
  -3   7 -10    7.69    5.60
  -3  -7 -10    3.60    2.61
  -3  -7 -10    5.42    4.76
   3   7  12    4.40    3.85
  -3  -7 -12    5.12    4.55
   3  -7  12    6.69    6.98
  -3   7 -12   -0.39    6.37
   3   7  12    5.28    2.77
  -3  -7 -12    2.29    3.38
   3   7  14   15.51    6.36
  -3  -7 -14   12.81    5.49
  -3  -7 -14    2.86    3.32
   3   7  14   23.57    3.49
   3  -7  14   29.85   12.66
  -3   7 -14    9.07    8.91
   3   8  -3    0.76    1.34
  -3  -8   3    5.42    1.89
  -3   8   3    1.72    1.92
   3  -8  -3   -0.54    1.39
  -3   8   1   -0.71    1.22
  -3  -8   1    1.59    1.80
   3   8  -1    2.38    1.37
   3  -8  -1    2.15    1.71
   3  -8  -1   -1.19    1.24
  -3  -8   1   -0.20    1.28
   3   8  -1    0.21    1.60
  -3   8   1    5.78    2.05
   3  -8   1    1.57    1.87
  -3   8  -1    6.48    1.76
   3   8   1    4.93    2.24
  -3  -8  -1    1.17    1.69
  -3   8  -1    1.93    1.91
   3  -8   1    3.89    2.34
   4   0  -6   21.23    9.66
  -4   0   6   84.65   10.73
   4   0  -4 1779.53   14.45
  -4   0   4 1767.89   14.40
  -4   0   2   97.64    8.50
   4   0   0  326.67    3.95
  -4   0   0  353.59    3.96
   4  -1 -11   89.78   14.01
  -4   1  11   54.31   13.93
  -4   1   9  863.22   20.38
   4  -1  -9  801.60   19.35
   4  -1  -7  344.49   11.03
  -4   1   7  350.64   11.26
  -4  -1   5   24.72   15.26
   4   1  -5   57.21   15.23
   4  -1  -5   56.68    7.46
  -4   1   5   48.23    6.77
   4   1  -3  972.31   10.05
  -4  -1   3  861.80    9.55
   4   1  -1  392.81    3.26
  -4  -1   1  392.29    3.27
   4  -1  -1  385.42    6.77
  -4  -1  -1   50.08    3.16
   4   1   1   41.90    3.04
  -4  -1  -3 4151.24   19.80
   4   1   3 4700.04   20.65
   4  -2 -16   76.24   15.10
  -4   2  16   65.05   14.93
  -4   2  14   10.37   11.89
   4  -2 -14  105.99   13.14
   4  -2 -12 1059.19   25.36
  -4   2  12 1044.23   25.35
  -4   2  10   98.50    9.58
   4  -2 -10  205.35   11.32
   4   2  -8  448.88   20.24
   4  -2  -8  317.15   11.38
   4   2  -6 2478.30   21.36
  -4   2   6 2396.86   17.07
  -4   2   4    4.13    2.62
   4  -2  -4    6.86    2.79
   4   2  -2 1470.99    7.86
  -4  -2   2 1466.40    7.85
  -4   2   0   76.33    2.81
   4  -2   0   83.18    2.94
  -4  -2  -2  918.40    7.36
   4   2   2  907.55    7.38
  -4  -2  -4  118.37    4.61
   4   2   4  121.33    4.66
   4   2   6  243.45    9.45
  -4  -2  -6  221.56    9.51
   4  -3 -23  144.89   18.62
   4  -3 -21   14.66   14.92
  -4   3  21    9.55   14.86
  -4   3  19   -0.92   13.37
   4  -3 -19   -1.69   11.46
   4  -3 -17   16.74   10.99
  -4   3  17   20.30   11.72
  -4   3  15   79.73   11.50
   4  -3 -15  133.45   12.82
   4  -3 -13   94.58   10.03
  -4   3  13  111.33   10.52
   4  -3 -11   70.09    7.90
  -4   3  11   79.92    8.30
   4   3 -11  105.45   17.87
  -4   3   9   27.96    6.30
   4  -3  -9   15.43    6.05
   4  -3  -7  241.75    9.83
   4   3  -7  334.05   11.18
  -4  -3   5 3481.49   20.42
   4   3  -5 3802.70   20.49
   4   3  -3  677.99    7.39
   4  -3  -3  651.02   10.17
   4   3  -1   48.12    2.49
  -4   3   1   34.02    3.10
   4  -3  -1   50.02    3.62
  -4  -3  -1    7.44    2.28
   4   3   1    5.34    2.16
   4   3   1    3.70    3.46
   4  -3   1    7.41    2.95
  -4   3  -3  347.22    9.52
   4   3   3  332.97   10.16
  -4  -3  -3  329.50    9.92
  -4   3  -5  243.57   16.71
   4  -3   5  314.82   19.38
  -4  -3  -5  313.51    6.71
   4   3   5  302.57    6.47
  -4  -3  -5  360.71   13.93
   4   3   5  268.95   12.99
  -4  -3  -7  394.50    8.39
   4   3   7  540.52    9.61
   4   3   9  395.85   11.53
  -4  -3  -9  171.83    9.62
   4  -4 -28   12.30   12.84
   4  -4 -26    6.08   11.01
  -4   4  26   13.03   12.31
   4  -4 -24  -13.56   10.17
  -4   4  24    9.39   13.22
  -4   4  22   11.45   12.00
   4  -4 -22   -0.97    9.54
   4  -4 -20   -7.57   10.02
  -4   4  20   -7.21   10.59
   4  -4 -18   45.07   10.86
  -4   4  18    2.30    9.70
   4  -4 -16  636.32   22.64
  -4   4  16  449.88   19.86
   4  -4 -14   92.09    9.08
  -4   4  14   52.07    8.60
   4   4 -14   82.24   18.94
   4  -4 -12   20.60    6.90
  -4   4  12   22.84    6.16
  -4   4  12   31.23    7.54
   4  -4 -12    6.68    7.49
  -4  -4  12   -7.19   14.18
   4   4 -12   53.82   19.41
  -4  -4  10   11.41    9.51
   4  -4 -10   -4.16    4.60
  -4   4  10   13.38    4.81
  -4   4  10   -1.55    5.22
   4  -4 -10    3.47    5.33
  -4  -4   8   32.63    7.44
   4  -4  -8   42.87    3.92
  -4   4   8   41.06    3.82
  -4   4   8   24.30    5.57
   4  -4  -8   39.29    6.18
  -4   4   6   40.77    2.96
   4  -4  -6   37.51    2.94
   4  -4  -6   40.32    4.68
  -4   4   4   17.26    2.22
   4  -4  -4   11.01    3.12
  -4  -4   4   21.34    3.49
   4   4  -4    8.81    3.00
  -4   4   2   47.70    2.28
   4  -4  -2   34.30    2.13
  -4  -4   0    3.78    1.88
  -4   4   0   10.66    2.80
  -4   4   0    3.71    1.88
   4  -4   0    4.08    2.05
  -4  -4  -2  492.62   11.25
   4   4   2  337.06    9.90
  -4  -4  -4  376.02   10.54
  -4  -4  -4  402.25    6.83
   4  -4   6   85.72    8.73
  -4   4  -6   70.88    8.45
   4   4   6   74.29    8.07
   4  -4   8  325.82   18.18
  -4   4  -8  287.79   20.33
   4   4   8  320.79    7.48
  -4  -4  -8  465.61   17.19
  -4  -4 -10  493.96   10.95
   4   4  10  652.82   12.01
  -4  -4 -10  488.04   20.70
  -4  -4 -12   37.14    8.67
  -4  -4 -12   30.88   12.73
  -4   5  25   23.27   11.22
   4  -5 -25   -6.65    8.00
  -4   5  23   14.76    9.49
   4  -5 -23   16.40    9.25
  -4   5  21   24.58    8.64
   4  -5 -21   23.53    8.93
   4  -5 -19    4.37    6.94
  -4   5  19    9.40    8.47
   4   5 -17   28.45   16.48
  -4   5  17   13.50    6.68
   4  -5 -17   18.23    6.98
  -4  -5  15   49.74   15.51
  -4   5  15   50.55    7.71
   4  -5 -13    1.98    6.28
  -4   5  13   14.94    6.10
  -4  -5  13   47.26   16.76
   4   5 -13    0.93   12.79
   4  -5 -13   15.16    5.72
  -4   5  13   44.08    6.62
   4  -5 -11  205.73   12.46
  -4  -5  11  222.72   12.71
   4   5 -11  350.33   14.03
   4  -5 -11  216.42    7.22
  -4   5  11  235.39    7.12
   4  -5  -9  992.38   21.56
   4   5  -9 1599.61   21.65
   4   5  -7   23.15    4.70
  -4  -5   7   28.23    5.12
   4  -5  -7   15.45    3.23
  -4   5   7   13.16    2.86
   4  -5  -5    4.15    2.40
   4  -5  -5    6.30    2.93
  -4   5   5   11.74    3.28
  -4   5   5    8.83    2.37
  -4  -5   5   11.07    3.60
   4   5  -5   12.30    3.61
  -4   5   3   14.03    1.94
   4  -5  -3   12.57    2.17
  -4   5   3   14.97    3.01
   4  -5  -3    4.89    2.31
   4   5  -3   10.83    2.13
   4   5  -1   81.33    3.78
  -4   5   1   88.13    4.43
  -4  -5   1   87.01    3.70
   4  -5  -1   93.23    4.52
  -4   5   1   83.52    2.92
   4   5  -1   82.74    3.13
  -4  -5   1   89.11    3.62
  -4  -5  -1  157.81    4.19
   4   5   1  165.20    4.16
   4  -5   1  154.16    4.57
   4   5   3   54.27    6.05
   4  -5   3   31.56    3.76
   4  -5   5   -1.84    6.76
  -4   5  -5   14.50    5.35
   4   5   5    7.68    2.77
  -4  -5  -5   12.85    3.03
   4   5   5   -0.91    4.68
  -4  -5  -5    8.09    5.46
   4  -5   7   59.53    9.09
  -4   5  -7   31.58    7.89
  -4  -5  -7   47.32    6.97
   4   5   7   44.06    6.81
  -4  -5  -9    9.51    4.32
   4   5   9   17.68    4.18
   4  -5   9   22.48   14.30
  -4   5  -9   11.61   10.72
  -4  -5  -9   13.05    7.56
   4   5   9   14.11    7.81
  -4   5 -11   32.07   15.97
   4  -5  11   12.79   14.11
  -4  -5 -11   43.63    9.40
   4   5  11   27.49    9.33
  -4  -5 -13   10.62    5.53
   4   5  13   22.29    6.40
  -4  -5 -13    9.94    9.97
   4   5  13    7.77    9.65
  -4  -5 -15    7.00    7.41
   4   5  15   11.40    7.22
  -4  -5 -15   -0.87   10.72
   4   5  15   25.05   10.89
  -4  -5 -17   11.99    8.26
  -4  -5 -17   17.94   11.38
  -4   6  22    2.81    6.87
   4  -6 -22    3.43    7.53
   4   6 -20   -5.77   14.17
   4  -6 -20   10.80    7.62
   4  -6 -20    0.73    5.30
  -4   6  20    3.13    6.41
   4   6 -18   17.52   13.97
  -4  -6  18    0.69   10.97
  -4   6  18    7.87    6.66
   4  -6 -18   23.74    7.28
   4  -6 -18   15.52    6.45
  -4   6  18   -2.68    5.64
   4   6 -16   52.21   14.81
  -4  -6  16   36.09   15.86
  -4   6  16   24.55    5.30
   4  -6 -16   13.60    4.88
  -4   6  16   11.49    5.01
   4  -6 -16   24.37    6.56
  -4  -6  14   26.74    9.31
   4  -6 -14    4.09    3.83
  -4   6  14    7.50    3.78
  -4   6  14   15.51    5.68
   4  -6 -14    5.60    5.51
  -4  -6  12   78.06    9.21
   4  -6 -12   73.72    5.05
  -4   6  12   36.88    6.42
  -4  -6  10   12.85    6.71
   4   6 -10   -1.12    6.10
   4  -6 -10   -2.30    3.79
  -4   6  10   10.16    5.10
   4  -6 -10    6.20    3.15
  -4   6  10    2.24    3.06
   4   6  -8   11.48    4.31
  -4  -6   8   15.90    4.82
   4  -6  -8   11.40    2.93
  -4   6   8    4.49    2.27
  -4   6   8    7.55    4.13
   4  -6  -8    2.47    3.70
   4  -6  -6   35.43    2.96
  -4   6   6   32.66    2.74
  -4   6   6   37.55    4.17
   4  -6  -6   22.13    3.88
   4  -6  -4   10.27    2.24
  -4   6   4    5.18    2.74
   4  -6  -4    9.86    3.02
   4   6  -4   11.99    2.52
  -4  -6   4   12.40    3.01
   4   6  -4    3.84    1.93
  -4   6   2   91.51    3.19
   4  -6  -2  104.35    5.22
  -4  -6   2   93.16    3.85
  -4  -6   0   20.28    2.58
   4   6   0   27.18    3.14
   4  -6   0   10.46    2.79
  -4  -6   0   28.27    3.03
  -4  -6  -2    3.90    2.20
  -4  -6  -2   17.35    3.07
  -4   6  -2    7.85    2.28
   4  -6   2   11.20    2.98
   4   6   2   14.44    3.10
   4  -6   4   11.71    3.49
   4   6   4   21.30    4.57
  -4  -6  -4   20.47    4.21
  -4  -6  -4    5.09    2.29
   4   6   4   13.32    2.45
   4  -6   6   -1.85    5.43
  -4   6  -6   14.22    4.58
   4   6   6    3.43    2.34
  -4  -6  -6    4.25    2.67
   4   6   6   -3.60    3.57
  -4  -6  -6   15.32    4.55
   4   6   8   10.23    2.96
   4   6   8   14.39    5.03
  -4  -6  -8   12.16    4.80
   4  -6   8    7.62    6.76
  -4  -6 -10   -1.07    3.43
  -4  -6 -10    1.88    4.80
   4   6  10    3.01    4.68
   4  -6  10    3.60    6.94
  -4  -6 -12    0.96    3.56
   4   6  12   -0.18    2.99
   4   6  12    5.20    6.02
  -4  -6 -12   -5.93    5.87
  -4   6 -12    9.92   12.16
   4  -6  12   19.44   15.00
   4   6  14   12.12    3.96
  -4  -6 -14   17.29    4.54
   4   6  14   25.72    8.71
  -4  -6 -14   15.22    7.21
   4  -6  14   13.01   12.23
  -4   6 -14   19.41   12.73
  -4  -6 -16   17.87    9.32
   4   6  16   -0.89    7.49
   4   6  16    6.23    5.23
  -4  -6 -16    6.68    5.15
  -4  -6 -18   12.72    9.02
   4   6  18   12.57   10.10
   4   6  18   27.07    6.95
  -4  -6 -18   18.51    6.64
  -4  -6 -20   22.52   11.26
   4   6  20   32.87   11.32
  -4  -6 -20   -0.44    7.33
  -4   7  17   20.55    5.62
   4   7 -17    6.71    7.89
  -4  -7  17   12.23   11.45
   4  -7 -17   -2.66    3.26
  -4   7  17    5.75    3.57
   4  -7 -17   -1.43    3.57
   4   7 -15   30.19    7.72
  -4  -7  15   22.39    7.99
   4  -7 -15   16.93    3.77
  -4   7  15   17.16    3.35
   4  -7 -15   23.98    5.77
  -4   7  15   11.74    4.75
  -4  -7  13   19.66    7.04
   4   7 -13    4.65    5.78
   4  -7 -13   24.54    6.17
  -4   7  13    7.24    4.84
  -4   7  13   12.09    3.07
   4  -7 -13   13.60    3.44
   4   7 -11    4.72    4.85
  -4  -7  11   10.77    6.22
  -4   7  11    7.81    2.66
  -4   7  11    2.09    3.94
   4  -7 -11    0.52    3.61
  -4  -7   9   26.05    4.49
  -4   7   9   26.06    2.71
   4  -7  -9   15.29    2.69
  -4   7   9   26.13    4.39
   4  -7  -9   32.78    4.91
   4  -7  -7    2.35    2.13
  -4   7   7   -0.31    2.43
   4  -7  -7   -0.65    2.19
   4  -7  -5   10.35    2.01
  -4   7   5    2.44    1.52
  -4   7   5    6.86    2.64
   4  -7  -5   16.68    3.21
   4   7  -5   15.52    2.56
  -4  -7   5    9.44    2.91
  -4  -7   3    5.09    2.29
  -4   7   3    2.26    2.17
   4   7  -3    2.15    1.35
  -4  -7   3    1.29    1.45
  -4   7   1    1.29    1.41
  -4  -7   1    8.35    2.28
   4  -7  -1    9.01    2.29
   4   7  -1    3.42    1.63
   4  -7  -1    2.59    1.62
   4   7  -1    2.88    1.67
  -4   7   1    1.58    1.76
  -4  -7   1    2.06    1.59
  -4   7  -1    4.52    1.88
  -4  -7  -1    4.38    1.84
   4   7   1    0.61    1.42
   4   7   1    8.27    2.35
   4  -7   1    4.53    2.28
  -4   7  -1    2.15    2.32
   4  -7   1    7.14    2.04
   4   7   3    8.92    1.88
  -4  -7  -3    8.36    2.04
  -4  -7  -3    8.34    2.50
   4   7   3   10.59    2.98
   4  -7   3    5.25    2.77
  -4   7  -3   10.98    2.46
  -4  -7  -5    2.35    2.37
  -4   7  -5    5.24    2.69
   4  -7   5    5.92    3.09
  -4  -7  -5    3.71    3.11
   4   7   5    9.88    3.75
   4   7   5    6.66    2.14
   4  -7   7   14.11    5.28
  -4   7  -7    5.73    3.42
  -4  -7  -7    5.33    2.46
   4   7   7   11.01    3.93
  -4  -7  -7    6.32    4.38
   4   7   9   -1.38    3.19
   4  -7   9    1.83    5.40
  -4   7  -9   11.42    5.36
  -4  -7  -9    6.20    2.44
  -4  -7  -9    7.03    4.00
   4   7  11   15.85    4.98
  -4  -7 -11   13.70    4.62
   4  -7  11   19.06    7.23
  -4   7 -11   12.62    6.59
   4   7  11   10.13    2.91
  -4  -7 -13    3.59    4.63
   4   7  13   -1.94    4.72
  -4  -7 -13    1.46    3.13
   4   7  13    1.26    2.76
   4  -7  13    6.32   10.59
  -4   7 -13   11.66    7.35
   4   8  -2    6.34    1.70
   4  -8  -2    1.83    1.68
  -4   8   2    9.73    2.46
  -4  -8   2    4.45    1.39
  -5   0   9   31.54   12.06
   5   0  -9   17.86   11.62
   5   0  -7   16.40    8.06
  -5   0   7   30.80    9.20
  -5   0   5    9.12    6.09
   5   0  -5    0.49    5.77
   5   0  -3    4.71    2.54
  -5   0   3    3.30    2.51
  -5   0   1    2.98    1.09
   5   0  -1    7.73    1.20
  -5   1  14   40.55   13.99
   5  -1 -14   42.48   13.93
   5  -1 -12   66.90   12.70
  -5   1  12   75.58   12.96
   5  -1 -10  416.97   15.59
  -5   1  10  399.93   15.52
  -5   1   8 2115.40   23.89
   5  -1  -8 2231.84   24.00
  -5   1   6   11.22    5.80
   5  -1  -6    5.08    5.62
   5   1  -4   75.15    5.10
  -5  -1   4   63.66    5.36
  -5   1   2   92.11    3.34
   5  -1  -2   92.81    3.33
  -5   1   0 1002.90   10.55
   5  -1   0  901.26   10.44
   5   1   2  480.98    6.19
  -5  -1  -2  577.79    6.53
   5  -2 -19   58.06   14.40
   5  -2 -17   59.02   14.94
  -5   2  17   69.36   15.15
   5  -2 -15   37.39   11.58
  -5   2  15   38.50   11.86
   5  -2 -13   84.65   11.76
  -5   2  13  100.03   11.87
  -5   2  11  300.27   13.09
   5  -2 -11  341.32   13.41
  -5   2   9    9.30    6.52
   5  -2  -9   25.49    7.47
  -5  -2   7  664.53   21.71
   5   2  -7  972.12   21.87
   5  -2  -5   48.40    4.42
  -5   2   5   38.21    3.66
   5  -2  -5   46.87    3.71
   5   2  -5   67.44    6.89
  -5  -2   5   61.34    7.14
   5  -2  -3 1255.34    6.49
   5   2  -3  813.91    7.38
  -5  -2   1   13.33    2.53
  -5  -2   1   11.79    1.99
   5  -2  -1    5.74    1.64
  -5   2   1    6.47    1.64
   5   2  -1   11.65    1.90
  -5  -2  -1 1510.25    8.77
   5   2   1 1647.29    9.14
  -5   2  -3  279.09   13.98
  -5  -2  -3  219.50    5.31
   5   2   5 1895.18   14.85
  -5  -2  -5 1548.95   13.76
  -5  -2  -7   31.09    8.62
   5  -3 -24   37.98   14.73
  -5   3  22   39.87   14.85
   5  -3 -22   11.29   13.85
  -5   3  20   29.98   13.99
   5  -3 -20   60.75   13.89
  -5   3  18   19.38   11.63
   5  -3 -18   72.36   13.83
  -5   3  16  273.91   16.33
   5  -3 -16  234.51   15.57
   5  -3 -14   20.23    7.57
  -5   3  14   33.96    8.50
  -5   3  12  162.06   10.44
   5  -3 -12  104.17    9.39
   5   3 -10  455.76   23.99
  -5  -3  10  152.95   17.57
  -5   3   8   15.12    6.25
  -5   3   8   27.08    5.44
   5  -3  -8   18.31    4.95
   5  -3  -6   20.82    4.53
  -5   3   6   17.08    4.42
  -5   3   6   24.50    3.62
   5  -3  -6   26.39    3.75
  -5  -3   6   37.76    7.30
   5  -3  -4   53.27    4.25
  -5   3   4   52.85    4.43
   5   3  -2  771.18    7.11
   5  -3  -2  668.84    4.97
  -5  -3   2  708.34    6.95
   5   3  -2  714.57    6.04
  -5   3   2  653.07    9.64
  -5  -3   2  673.69    5.73
   5  -3   0   64.71    3.11
  -5   3   0   63.48    2.87
  -5  -3  -2  482.61   10.79
   5   3   2  497.33   11.52
   5   3   4   16.30    3.42
  -5  -3  -4   13.38    3.54
   5  -3   4  -13.65   10.98
  -5   3  -4    7.33    8.43
   5   3   4   23.71    9.03
  -5   3  -6    7.76   14.48
  -5  -3  -6   23.80    4.28
   5   3   6   20.76    3.82
   5   3   8   41.63    6.43
  -5  -3  -8   32.41    6.02
  -5  -3 -10   17.81    8.04
   5   3  10   37.85    8.28
   5  -4 -29    6.47   11.57
   5  -4 -27    7.68   11.66
  -5   4  27   19.92   12.13
   5  -4 -25    4.45   10.97
  -5   4  25   17.32   12.37
  -5   4  23  -12.47    8.57
   5  -4 -23    3.97    9.68
  -5   4  21   17.68   11.32
   5  -4 -21   45.60   11.73
  -5   4  19   12.70   10.10
   5  -4 -19    9.82    9.59
  -5   4  17  128.15   12.69
   5  -4 -17  180.86   14.01
  -5   4  15   35.61    7.94
   5  -4 -15   12.51    7.06
  -5  -4  13   25.12   14.59
   5  -4 -13   -0.72    7.99
   5  -4 -13    6.48    6.32
  -5   4  13   14.31    6.23
  -5   4  11   14.47    6.03
   5  -4 -11   34.28    6.66
  -5  -4  11   62.66   14.49
   5  -4 -11   31.64    6.09
  -5  -4   9  609.73   14.67
   5   4  -9  783.10   15.46
  -5   4   7   14.53    3.92
   5  -4  -7   23.99    4.51
  -5   4   5  113.26    5.82
  -5  -4   5   99.44    4.77
  -5   4   5  112.01    3.50
   5  -4  -5  108.06    3.69
   5  -4  -5  105.27    5.77
  -5  -4   3   71.86    3.16
  -5  -4   3  154.98    4.09
  -5  -4   1   15.59    2.16
  -5   4   1   21.71    2.05
   5   4  -1   17.93    2.09
   5  -4  -1   27.11    3.16
  -5  -4   1   19.74    2.24
  -5  -4  -1  353.17    5.24
   5   4   1  526.38   11.50
  -5   4  -3    8.26    4.30
   5  -4   3   -5.87    4.73
   5  -4   5   32.17    7.85
  -5   4  -5   72.22    7.60
  -5  -4  -5   72.56    7.32
   5  -4   7  110.38   17.76
  -5   4  -7   95.98   16.48
  -5  -4  -7   86.95   10.31
  -5   4  -9   73.84   17.05
  -5  -4  -9  104.25   13.40
   5   4   9   60.87   11.67
   5   4  11   41.94    6.99
  -5  -4 -11   35.42    7.79
  -5  -4 -13   48.73   10.46
   5   4  13  100.80    9.99
   5  -5 -26   -3.37    8.34
  -5   5  26   17.71    9.66
   5  -5 -24    4.95    7.79
  -5   5  24    7.59    9.45
  -5   5  22   -1.87    8.41
  -5   5  20   -3.97    7.37
   5  -5 -20  -11.23    6.03
  -5   5  18   11.90    6.90
   5  -5 -18   22.66    7.09
  -5  -5  16  -15.48   13.65
   5   5 -16   -7.45   15.16
   5  -5 -16   -0.31    8.19
   5  -5 -16   11.34    6.37
  -5   5  16   -0.55    5.59
  -5   5  14   35.55    6.86
   5  -5 -14   27.74    6.78
  -5  -5  14   23.72   18.55
  -5  -5  12   12.70    9.53
   5  -5 -12   18.40    5.20
  -5   5  12   16.48    4.90
  -5   5  12   -2.33    5.42
   5  -5 -12   -4.78    5.92
  -5  -5  10  701.53   16.15
   5   5 -10  972.59   18.65
   5   5  -8   37.97    5.66
   5  -5  -8   28.52    3.66
   5  -5  -8   12.40    4.51
  -5   5   8   34.88    5.29
  -5   5   6   11.98    3.45
   5   5  -6    8.93    3.59
  -5  -5   6    7.17    3.70
  -5   5   4    9.29    1.92
   5  -5  -4    6.33    2.09
   5  -5  -4   14.76    3.03
  -5   5   4    9.04    2.82
   5   5  -4   11.04    2.84
  -5  -5   4   13.73    3.26
   5  -5  -2    7.52    2.33
  -5  -5   2    6.25    1.70
   5   5  -2    5.08    1.70
  -5   5   2    5.93    2.44
  -5   5   2    5.69    1.73
  -5  -5   2   11.47    2.72
   5  -5  -2    8.70    2.03
   5  -5   0   12.91    3.36
  -5   5   0   15.62    3.33
  -5  -5   0   12.73    2.58
  -5  -5   0   12.18    2.39
   5  -5   0    8.13    2.34
  -5   5   0   13.93    2.41
   5   5   0   18.64    2.46
   5   5   2   44.12    2.91
   5  -5   2   35.57    3.67
   5  -5   4   28.86    5.54
  -5   5  -4   31.13    4.82
   5   5   6    5.53    5.25
  -5  -5  -6   -2.27    4.86
   5  -5   6   -1.59    7.49
  -5  -5  -6    0.22    3.03
   5   5   6    1.86    3.04
  -5   5  -6    7.62    7.14
   5   5   8   24.26    4.19
  -5   5  -8   36.19    9.67
   5  -5   8   27.60   12.21
  -5  -5  -8   42.63    8.11
   5   5   8   13.38    7.44
   5   5  10   16.62    4.06
  -5  -5 -10    4.24    4.27
   5  -5  10    2.37   13.66
  -5   5 -10    1.18   17.76
   5   5  10   37.95   10.26
  -5  -5 -10   24.39    8.90
  -5  -5 -12   46.12    5.71
   5   5  12   41.26    5.67
  -5   5 -12   22.73   15.51
   5   5  12   31.21   11.01
  -5  -5 -12   29.91   10.17
  -5  -5 -14    0.56    6.26
   5   5  14    0.29    6.03
  -5  -5 -14   -6.54   10.37
  -5  -5 -16   37.50    8.73
   5   5  16   25.14    7.66
   5  -6 -23   13.88    7.41
  -5   6  23   12.29    7.38
   5  -6 -21   -1.49    4.84
  -5   6  21   -8.01    5.19
   5   6 -19   15.27   13.56
  -5  -6  19  -16.09   11.05
   5  -6 -19    7.13    6.94
  -5   6  19   15.19    6.66
   5  -6 -19    5.75    5.96
  -5  -6  17   -0.78   14.02
   5   6 -17   26.29   15.78
  -5   6  17    9.87    5.74
   5  -6 -17    5.82    5.58
   5  -6 -17   12.68    5.95
  -5   6  17    0.60    4.10
   5  -6 -15   22.80    6.16
  -5   6  15   33.02    6.32
  -5  -6  15   55.32   12.34
   5   6 -15   42.56    8.59
   5  -6 -15   25.74    4.87
  -5   6  15   16.21    4.16
  -5  -6  13   32.20    8.65
  -5   6  13   25.18    3.64
  -5   6  13   16.61    5.34
   5   6 -11    7.55    6.65
  -5   6  11    6.16    2.87
   5  -6 -11   -1.10    3.49
   5  -6 -11    8.32    4.70
  -5   6  11    6.26    4.62
   5  -6  -9   61.09    3.89
  -5   6   9   62.48    6.24
   5  -6  -9   63.26    6.10
   5   6  -9   58.41    5.56
  -5  -6   9   43.33    6.27
  -5   6   7   30.87    4.12
   5  -6  -7   45.22    4.83
   5  -6  -5   18.00    2.41
  -5   6   5   23.38    2.46
   5  -6  -5   26.34    4.00
  -5  -6   5   30.71    3.75
  -5  -6   3   72.61    3.75
   5  -6  -3   69.05    4.74
  -5   6   1   50.11    3.73
   5  -6  -1   31.68    3.58
  -5  -6   1   41.10    3.05
   5   6  -1   49.75    2.89
  -5  -6   1   51.63    3.13
   5  -6   1   26.23    2.84
  -5   6  -1   30.44    2.58
  -5  -6  -1   17.38    2.69
  -5  -6  -1   28.79    2.70
  -5   6  -1   26.71    3.43
   5   6   1   14.95    3.17
   5  -6   3    3.58    2.92
  -5   6  -3   13.75    3.03
   5   6   3   17.53    4.20
  -5  -6  -3    1.43    3.22
  -5  -6  -3    6.47    2.28
   5   6   3    1.98    2.05
  -5   6  -5   10.77    3.92
   5  -6   5   17.81    4.77
   5   6   5   21.24    2.76
   5   6   5   31.58    5.26
   5   6   7    5.89    4.31
  -5  -6  -7   14.85    5.23
   5   6   7    3.77    2.50
  -5  -6  -7   -1.83    2.64
  -5   6  -7   11.02    5.98
   5  -6   7   14.74    6.02
  -5  -6  -9   -4.46    2.91
   5   6   9    2.60    3.16
  -5  -6  -9    2.69    4.41
   5   6   9   14.60    5.78
   5  -6   9    1.31    7.68
  -5   6  -9    3.11    6.79
   5   6  11   13.10    3.45
  -5  -6 -11    1.09    3.56
   5   6  11    1.86    6.23
  -5  -6 -11   14.51    7.11
   5  -6  11   19.66   14.10
  -5   6 -11    9.83   10.86
  -5  -6 -13   -4.16    3.32
   5   6  13    5.30    3.47
   5   6  13    9.78    7.41
   5  -6  13   -8.18   11.14
  -5   6 -13   -1.29   11.87
   5   6  15   22.31    9.98
  -5  -6 -15   -1.66    7.84
  -5   6 -15    2.09   13.79
  -5  -6 -15   12.91    4.88
   5   6  15    9.52    4.50
  -5  -6 -17   27.60   10.20
   5   6  17   14.70    9.95
   5   6  17   -0.36    5.26
  -5  -6 -17   -6.41    5.47
  -5  -6 -19   24.39   11.52
   5   6  19    3.23    5.71
  -5  -6 -19   -4.71    6.27
  -5  -7  16   -7.36    6.39
  -5   7  16   17.01    3.74
   5  -7 -16    1.85    3.68
   5  -7 -16    3.81    4.17
  -5   7  16   18.58    5.51
  -5  -7  14   31.31    7.80
   5  -7 -14   44.21    7.35
  -5   7  14    8.65    4.89
  -5   7  14   38.03    3.83
   5  -7 -14   38.13    4.14
   5   7 -12   15.59    5.90
  -5  -7  12   -0.35    5.99
  -5   7  12   17.58    4.79
   5  -7 -12   12.52    4.29
   5  -7 -12    3.19    2.74
  -5   7  12    0.70    2.45
  -5  -7  10    3.61    4.64
   5   7 -10    0.90    3.71
   5  -7 -10    2.76    2.32
  -5   7  10   -0.28    2.10
   5  -7 -10    9.05    3.34
  -5   7  10   -1.77    2.80
  -5   7   8   25.83    2.64
   5  -7  -8   28.55    2.92
   5  -7  -8   30.97    3.95
  -5   7   8   18.87    3.66
  -5  -7   8   32.26    3.83
   5  -7  -6   37.04    2.68
  -5   7   6   40.84    4.50
  -5  -7   6   45.03    4.05
  -5   7   4   13.15    1.72
   5  -7  -4    9.86    2.00
   5  -7  -4    8.36    2.35
  -5   7   4    6.62    2.40
  -5  -7   4   11.86    2.27
  -5  -7   4   11.96    2.05
   5   7  -4    4.75    1.83
  -5  -7   2    7.74    2.22
  -5  -7   2    8.19    1.68
   5  -7  -2   12.03    2.45
   5   7   0   10.63    1.80
  -5   7   0    8.86    1.84
   5  -7   0    4.04    2.06
  -5  -7   0   10.79    2.29
   5   7   0   14.38    2.49
   5  -7   0   12.82    2.91
  -5   7   0   14.94    2.88
   5  -7   2    3.78    2.54
  -5   7  -2   10.58    2.25
  -5  -7  -2   11.26    2.14
   5   7   2   10.01    1.88
   5   7   2   13.52    2.96
  -5   7  -2    8.81    2.15
  -5  -7  -4   57.88    3.41
   5   7   4   70.94    3.60
  -5  -7  -4   72.70    5.98
   5   7   4   71.94    6.05
   5  -7   4   40.58    3.62
  -5   7  -4   59.73    3.94
   5  -7   6   -0.21    3.81
  -5   7  -6   20.57    3.77
   5   7   6   20.34    2.46
  -5  -7  -6   19.99    2.81
  -5  -7  -6   13.80    4.69
   5   7   6    1.19    3.21
   5   7   8    7.78    3.79
   5  -7   8   16.90    6.08
  -5   7  -8   21.55    5.41
  -5  -7  -8    6.32    2.69
   5   7   8    6.61    2.15
  -5  -7  -8    4.00    3.82
   5   7  10    7.08    4.38
  -5  -7 -10   26.77    5.20
  -5   7 -10   12.54    5.83
  -5  -7 -10    8.07    3.09
   5   7  10   13.04    2.84
   5  -7  10   30.80    7.05
  -5  -7 -12    3.80    3.19
   5   7  12    3.78    2.53
   5  -7  12   -3.17    8.13
  -5   7 -12    7.21    6.69
   5   7  12   13.31    5.77
  -5  -7 -12    4.03    5.12
  -5  -7 -14    2.93    3.38
  -5   7 -14  -11.47   10.61
   5  -7  14    4.88   12.35
   5   7  14   -5.35    5.62
  -5  -7 -14    9.82    5.83
   6   0 -10  693.02   19.77
  -6   0  10 1248.20   25.11
  -6   0   8 2098.25   24.61
   6   0  -8 2095.77   24.18
  -6   0   6  321.47    9.08
   6   0  -6  334.49    9.04
   6   0  -4  542.09    7.05
  -6   0   4  595.20    7.53
   6   0  -2  291.77    5.22
   6   0  -2  240.02    2.35
   6   0   0 1264.45    7.17
  -6   0   0 1080.67    6.76
   6  -1 -15  322.22   20.02
  -6   1  15  380.87   21.57
  -6   1  13  226.21   16.11
   6  -1 -13  257.82   16.39
   6  -1 -11  388.91   15.57
  -6   1  11  343.11   15.21
  -6   1   9 1382.53   20.15
   6  -1  -9 1655.26   21.65
   6  -1  -7  131.00    7.87
  -6   1   7  131.58    7.98
   6   1  -5   97.35    5.32
  -6   1   5   82.20    5.17
   6  -1  -5   99.44    5.43
   6  -1  -3   49.37    3.35
  -6  -1   3   53.42    1.99
  -6   1   3   49.91    3.24
  -6   1   1 1970.46    6.95
   6   1  -1 2111.74    7.24
  -6  -1  -1  126.85    3.78
   6   1   1  111.81    3.74
   6   1   3  143.97    6.84
  -6  -1  -3  103.01    6.77
  -6   2  20  189.71   19.55
   6  -2 -20  161.60   17.95
  -6   2  18   28.40   13.94
   6  -2 -18   48.64   13.10
  -6   2  16   38.87   13.04
   6  -2 -16   36.77   10.81
  -6   2  14  355.82   17.21
   6  -2 -14  368.66   16.54
  -6   2  12   10.87    7.82
   6  -2 -12   17.99    7.65
   6  -2 -10  503.75   14.97
  -6   2  10  426.53   13.68
   6   2  -8 1625.44   30.83
   6  -2  -8 1154.03   20.83
   6   2  -6  449.34   10.69
  -6  -2   6  304.21   10.10
  -6  -2   4  358.74    5.76
   6   2  -4  401.31    5.94
  -6   2   4  370.68    4.52
   6  -2  -4  317.78    4.35
   6  -2  -4  311.84    7.30
  -6   2   4  315.43    7.38
  -6  -2   2 1313.32    7.82
   6   2  -2 1321.75    7.73
  -6  -2   2 1294.54    6.90
  -6  -2   0  418.64    4.50
   6   2   0  473.18    4.78
  -6   2  -2  362.75   13.50
   6  -2   2  332.34   12.35
  -6  -2  -2  358.31    5.31
   6   2   2  366.10    5.40
  -6  -2  -4   35.71    4.34
   6   2   4   54.62    4.47
   6   2   6  806.21   13.30
  -6  -2  -6  662.61   12.58
   6  -3 -27   19.30   12.59
  -6   3  25    5.50   12.92
   6  -3 -25    2.24   11.96
  -6   3  23   30.49   13.64
   6  -3 -23   19.30   13.28
  -6   3  21   11.88   12.89
   6  -3 -21   27.21   12.99
  -6   3  19  127.21   15.17
   6  -3 -19  130.38   14.80
   6  -3 -17  122.54   12.57
  -6   3  17   98.56   12.61
   6  -3 -15  116.06   10.63
  -6   3  15  111.57   10.72
  -6   3  13  736.10   18.96
   6  -3 -13  671.55   18.00
  -6  -3  11   57.38   14.36
  -6   3  11   50.60    7.16
   6   3  -9   78.93    9.65
  -6  -3   9  101.91   10.70
   6  -3  -9   68.26    7.43
  -6   3   9   93.04    8.43
  -6   3   9   83.73    7.70
   6  -3  -9   32.27    6.74
  -6   3   7    9.53    3.54
   6  -3  -7    8.23    3.44
   6  -3  -7    5.37    4.18
  -6   3   7    7.08    4.02
   6   3  -5 1393.26   11.81
  -6   3   5 1359.78    9.20
  -6   3   3  182.43    3.03
   6  -3  -3  176.66    3.15
  -6   3   3  178.71    5.87
   6  -3  -3  186.07    5.86
   6   3  -3  180.47    4.16
  -6  -3   3  171.45    4.15
  -6  -3   1  366.65    6.87
   6  -3  -1  277.84    8.03
   6   3   1   93.64    3.48
  -6   3  -1   52.98    3.87
  -6  -3  -3  303.37    5.57
   6   3   3  327.27    5.73
  -6   3  -5   56.85   13.07
   6  -3   5   87.66   13.43
  -6  -3  -7    4.85    4.63
   6   3   7   11.51    4.73
  -6  -3  -9  251.89   10.37
   6   3   9  152.31    9.04
   6  -4 -30  -18.97    9.96
   6  -4 -28   20.60   11.87
  -6   4  28   -3.94   10.25
   6  -4 -26   18.82   10.85
  -6   4  26  -23.71    9.34
  -6   4  24    7.42   10.27
   6  -4 -24   14.14   10.35
   6  -4 -22    1.76    8.98
  -6   4  22  -15.84    7.96
   6  -4 -20    6.15    9.25
  -6   4  20    8.94    9.34
   6  -4 -18   14.52    8.23
  -6   4  18   30.87    9.37
   6  -4 -16   91.35   10.21
  -6   4  16   51.34    8.86
   6   4 -14    7.68   16.43
  -6  -4  14  -15.21   14.57
  -6   4  14  -11.79    5.44
   6   4 -12  833.98   25.15
   6  -4 -12  502.78   16.15
  -6   4  10  124.35    9.17
   6  -4 -10  147.14    9.20
   6  -4 -10  110.05    5.92
  -6   4  10  144.20    6.19
  -6  -4  10  155.45   10.59
   6   4  -8    6.63    6.79
  -6  -4   8   -1.04    6.57
  -6   4   8   11.18    3.29
   6  -4  -8    8.72    3.27
   6   4  -6  532.10    8.43
  -6  -4   6  439.35    7.98
  -6   4   6  414.15   10.32
   6  -4  -6  412.10   10.59
   6  -4  -4  305.00    4.49
   6   4  -4  269.84    5.49
  -6  -4   4  244.21    5.50
  -6   4   4  243.12    7.37
  -6  -4   2    8.83    2.54
   6  -4  -2    4.23    1.66
   6   4  -2   14.74    2.35
   6   4  -2   12.02    1.81
  -6  -4   2    6.70    1.51
  -6   4   0   29.39    2.29
   6  -4   0   13.61    2.38
  -6  -4  -2   59.94    3.27
   6   4   2   61.13    5.16
   6  -4   2   56.01    4.28
  -6   4  -2   53.10    3.80
   6  -4   4  123.91    8.18
  -6   4  -4   89.26    7.23
   6   4   6   68.45   10.67
   6  -4   6  137.42   15.72
  -6   4  -6  104.59   13.15
  -6  -4  -6   95.45    5.10
   6   4   6  119.38    5.24
  -6  -4  -6  132.86   11.18
  -6  -4  -8    7.88    4.12
   6  -4   8    5.34   13.95
  -6   4  -8    4.28   13.38
  -6  -4 -10  269.80    8.76
   6   4  10  280.46    9.34
   6   4  12    7.29    8.37
  -6  -4 -12   25.09    8.78
   6  -5 -27   20.23    9.99
  -6   5  27   21.93    9.90
   6  -5 -25    5.06    8.52
  -6   5  25   13.03    9.95
  -6   5  23   -2.87    7.17
   6  -5 -23   12.46    8.06
   6  -5 -21   -8.30    5.99
  -6   5  21    5.74    7.15
  -6   5  19    6.84    6.45
   6  -5 -19   -3.87    5.58
   6  -5 -17   -7.96    5.37
  -6   5  17    4.52    5.51
   6   5 -17   -7.02   14.94
  -6  -5  17    5.13   13.56
  -6   5  15    6.02    6.14
   6  -5 -15   23.39    7.03
   6  -5 -15   -4.58    7.51
  -6  -5  15   14.86   17.75
   6   5 -15   27.46   18.67
  -6   5  13   19.54    5.92
   6  -5 -13   35.92    7.60
   6   5 -13   41.77   10.06
  -6  -5  13   18.66   11.47
   6  -5 -13    8.97    5.23
  -6   5  13   17.01    5.68
  -6  -5  11   21.44    8.98
   6   5 -11   16.11    8.30
   6  -5 -11    0.53    4.22
  -6   5  11    3.35    3.73
   6  -5 -11   16.67    6.69
  -6   5  11    7.43    5.15
   6  -5  -9   93.98    5.05
  -6  -5   9   89.26    9.09
  -6   5   9  111.75    7.89
   6  -5  -9  111.29    7.66
   6  -5  -7    4.56    3.13
  -6   5   7   16.80    3.67
  -6   5   7    2.29    2.47
   6  -5  -7   13.15    2.91
  -6  -5   7   12.23    3.93
   6   5  -5    5.81    3.15
  -6  -5   5    7.80    3.46
   6  -5  -5    0.24    2.90
   6   5  -3   49.94    2.63
   6  -5  -3   42.85    3.90
  -6  -5   3   33.75    2.26
  -6  -5   3   35.83    3.11
   6   5  -3   50.27    3.26
   6   5  -1  110.18    4.25
   6  -5  -1  115.17    5.85
  -6   5   1   93.47    5.24
   6  -5  -1  112.14    3.69
  -6  -5   1  110.33    3.83
   6   5  -1  115.08    3.74
  -6  -5  -1    9.88    3.72
  -6  -5  -1   10.14    2.40
   6   5   1   10.07    2.27
  -6   5  -1    1.07    2.48
   6  -5   1    8.94    2.94
   6   5   3   10.63    4.73
  -6  -5  -3    5.76    4.51
   6   5   3   11.32    2.74
  -6  -5  -3   16.72    3.05
  -6   5  -3    6.14    3.55
   6  -5   3   19.94    4.52
  -6  -5  -5   77.30    4.42
   6  -5   5   51.52    7.71
  -6   5  -5   80.13    7.88
   6   5   7  330.03    7.84
  -6  -5  -7  201.16   12.17
  -6  -5  -9   60.78    5.11
   6   5   9   66.10    5.11
  -6  -5  -9   56.89   10.19
   6   5   9   45.81   10.36
   6  -5   9   49.45   16.78
  -6   5  -9   94.57   17.66
   6   5  11   22.33    4.75
  -6  -5 -11   22.69    4.78
   6   5  11   23.60   10.80
  -6  -5 -11   25.54   10.90
  -6   5 -11   23.73   15.53
  -6  -5 -13    5.27   10.71
   6   5  13   -3.16    5.55
  -6  -5 -13   10.28    5.54
   6   5  15    6.86    6.85
  -6  -5 -15    2.56    6.87
  -6  -5 -17   -1.13    7.38
  -6   6  22   13.95    6.51
   6  -6 -22    3.84    4.86
  -6   6  20   -2.13    4.49
  -6  -6  20    0.78   11.85
   6   6 -20   -0.76   13.92
   6  -6 -20   -1.50    6.56
  -6   6  18    7.47    5.53
   6  -6 -18    9.22    5.63
   6  -6 -18    7.26    6.37
  -6   6  18   17.32    6.13
  -6  -6  18   10.48   12.02
   6  -6 -16   -3.05    5.13
  -6   6  16   -0.60    3.91
  -6   6  16    8.14    4.89
   6  -6 -16   -4.60    4.34
  -6  -6  16   21.63   12.96
   6   6 -16   -5.28    9.45
   6   6 -14   -0.38    7.25
  -6  -6  14   12.89    7.91
   6  -6 -14   13.15    6.71
  -6   6  14    8.44    4.74
   6  -6 -14    0.53    3.38
  -6   6  14    5.29    3.61
   6   6 -12   10.38    6.82
  -6  -6  12   10.74    7.14
  -6   6  12   20.62    5.53
   6  -6 -12   10.34    4.65
   6  -6 -12   -2.87    3.22
  -6   6  12    9.37    3.24
   6   6 -10   16.14    5.07
  -6  -6  10    6.27    6.13
  -6   6  10   -2.94    3.43
   6  -6 -10    6.80    4.00
   6  -6  -8   14.48    2.84
  -6  -6   8   19.38    4.23
   6  -6  -6    6.49    2.39
  -6   6   6   -2.14    2.03
   6  -6  -6    8.50    3.66
  -6   6   6    4.74    2.87
  -6  -6   6   -0.15    3.37
   6   6  -6    6.76    2.90
  -6  -6   4   92.32    3.96
   6  -6  -4  139.86    6.46
  -6   6   2   53.62    4.21
   6  -6  -2   38.83    3.41
  -6  -6   2   56.82    3.54
   6  -6  -2   56.54    2.87
   6   6   0    8.33    2.11
  -6   6   0    3.88    1.95
   6  -6   0    4.30    1.96
  -6   6   0    7.88    2.97
   6   6   0    8.00    2.38
  -6  -6   0   10.17    2.43
  -6  -6  -2   44.63    3.06
   6   6   2   51.92    2.94
   6  -6   2   50.30    3.83
   6  -6   4   43.03    4.71
  -6   6  -4   30.18    3.84
   6   6   6   -1.73    3.82
  -6  -6  -6    6.72    4.14
   6   6   6   11.51    2.53
  -6  -6  -6    3.92    2.71
   6  -6   6   22.12    6.56
  -6  -6  -8   24.13    5.75
   6   6   8    4.74    5.12
  -6   6  -8   22.09    7.34
   6  -6   8   15.78    7.61
  -6  -6 -10   13.02    3.80
   6   6  10   14.90    6.34
  -6  -6 -10   12.33    6.39
   6  -6  10    5.26   11.17
  -6   6 -10   11.81    7.65
  -6  -6 -12    3.74    3.61
   6   6  12   -3.23    3.01
  -6  -6 -12    5.47    7.33
   6   6  12    5.07    6.92
   6  -6  12   -3.33   11.05
  -6   6 -12    0.72   14.46
   6   6  14   11.62    9.58
  -6  -6 -14   27.86    9.32
  -6   6 -14   15.41   13.32
  -6  -6 -16  -10.68    9.05
   6   6  16   11.91    9.25
   6   6  16    7.05    5.13
  -6  -6 -16   -2.00    4.80
  -6  -6 -18   -1.99    8.73
  -6  -6 -18   12.50    6.70
   6   6  18   18.25    6.36
   6   7 -17   -7.15    7.05
  -6  -7  17   -1.07    7.88
   6  -7 -17    4.62    4.81
  -6   7  17   -0.66    3.64
   6  -7 -17    0.46    3.67
  -6   7  17    7.00    3.53
  -6  -7  15    6.74    7.32
   6   7 -15   10.54    6.84
  -6   7  15    1.35    4.10
   6  -7 -15   14.21    5.73
   6  -7 -15    7.41    3.34
  -6   7  15   12.16    3.20
  -6  -7  13   12.86    6.50
   6   7 -13    8.16    6.03
   6  -7 -13   21.28    5.43
  -6   7  13   19.52    5.29
  -6   7  13    4.06    2.68
   6  -7 -13    1.10    3.09
  -6  -7  11    6.68    5.29
   6   7 -11    6.12    4.08
  -6   7  11    9.56    2.50
   6  -7 -11    5.26    2.56
   6  -7 -11    2.71    3.29
  -6   7  11   -0.98    2.93
   6   7  -9   10.50    3.07
  -6  -7   9    4.31    3.63
   6  -7  -9    6.21    2.86
  -6   7   9    5.22    1.96
   6  -7  -9   -0.12    2.05
  -6   7   9    4.33    3.15
   6  -7  -7    3.89    2.00
   6  -7  -7    9.09    2.84
  -6   7   7    6.37    1.93
  -6  -7   7    7.94    2.96
  -6   7   5   19.23    2.03
   6  -7  -5   16.78    2.07
   6  -7  -5   20.83    3.20
   6   7  -5   16.84    2.42
  -6  -7   5   17.79    2.81
   6  -7  -3   -1.33    1.54
  -6  -7   3    6.34    2.27
   6   7  -3   -0.76    1.27
   6  -7  -3    5.80    2.35
  -6   7   3    0.52    2.11
  -6  -7   3    2.06    1.16
   6  -7  -1   -2.32    1.70
  -6   7   1    2.34    1.56
  -6  -7   1    3.50    1.80
   6  -7  -1    2.22    2.08
  -6   7   1    0.23    1.34
   6   7  -1    1.60    1.74
  -6  -7   1    5.09    1.71
   6  -7   1   -0.23    2.09
  -6  -7  -1    4.94    1.91
  -6  -7  -1    1.40    1.94
  -6   7  -1    1.09    1.68
   6   7   1    5.03    1.61
  -6   7  -1    0.97    1.99
   6   7   1    9.35    2.71
  -6  -7  -3   31.19    2.80
   6   7   3   39.90    2.82
  -6  -7  -3   41.67    4.72
   6  -7   3   27.59    3.40
  -6   7  -3   33.22    3.21
  -6  -7  -5    5.04    2.23
  -6   7  -5    7.59    2.76
   6  -7   5   11.20    3.78
   6   7   5    5.43    1.92
  -6  -7  -5   19.74    5.17
   6   7   5    6.32    3.48
   6   7   7    5.71    3.51
   6  -7   7   -7.39    5.13
  -6  -7  -7    4.61    4.44
   6   7   9    0.49    3.45
  -6  -7  -9    7.53    4.20
  -6   7  -9    0.91    4.98
  -6  -7  -9    6.01    2.60
   6   7   9    7.33    2.68
   6  -7   9    0.34    6.24
   6   7  11    0.40    2.43
  -6  -7 -11    6.11    3.38
  -6   7 -11    2.28    6.51
   6  -7  11   -2.75    6.85
  -6  -7 -11    6.68    5.19
   6   7  11   11.65    5.24
   6   7  13    5.61    2.85
  -6  -7 -13    2.54    3.15
   6   7  13    9.66    5.76
  -6  -7 -13    3.44    5.28
   6  -7  13    3.21   12.66
  -6   7 -13    3.64    9.12
  -7   0  13   23.10   13.13
   7   0 -13   -7.88   11.64
   7   0 -11   12.80   10.36
  -7   0  11   87.26   11.56
   7   0  -9    8.01    6.95
  -7   0   9   10.73    7.78
  -7   0   7   14.49    5.76
   7   0  -7   18.77    6.10
   7   0  -5    9.12    3.56
  -7   0   5    3.64    3.58
   7   0  -3    7.91    3.99
  -7   0   3    9.43    4.09
  -7   0   3    2.65    1.98
  -7   0   1   23.70    1.63
   7   0  -1   21.38    1.68
   7  -1 -18  348.29   20.92
  -7   1  18  346.07   22.34
   7  -1 -16  127.80   15.03
  -7   1  16  121.97   16.15
   7  -1 -14   19.86   10.86
  -7   1  14   46.08   12.61
   7  -1 -12   11.54    7.93
  -7   1  12   12.87    9.21
   7  -1 -10   50.45    7.21
  -7   1  10   31.62    7.22
  -7   1   8 2412.59   24.88
   7  -1  -8 2670.10   26.29
   7   1  -6 1445.81   24.59
   7  -1  -6 1050.21   13.94
   7   1  -4  383.68    6.50
  -7  -1   4  375.05    6.70
  -7   1   2  611.02    9.60
  -7  -1   2  587.17    4.49
  -7  -1   0  216.11    3.49
   7   1   0  164.39    3.33
  -7  -1  -2  112.67    4.29
   7   1   2   75.64    4.23
   7  -2 -23    6.70   13.37
  -7   2  21   34.76   15.44
   7  -2 -21   51.55   15.57
  -7   2  19   14.42   12.28
   7  -2 -19   22.09   11.90
  -7   2  17    8.00   10.39
   7  -2 -17   49.47   11.04
   7  -2 -15   35.58    9.11
  -7   2  15   26.75    9.69
  -7   2  13   50.45    8.91
   7  -2 -13   82.22    9.12
  -7   2  11  916.80   19.54
   7  -2 -11 1216.52   22.22
   7   2  -9 1108.53   23.93
   7  -2  -9  828.41   19.54
  -7  -2   7   61.68    8.94
   7  -2  -7   47.88    5.24
   7  -2  -5    9.59    3.31
  -7   2   5    4.58    3.01
   7  -2  -5   14.35    2.94
  -7   2   5    8.32    3.17
   7   2  -5   17.49    4.33
  -7  -2   5   20.80    4.44
   7  -2  -3   65.92    3.55
  -7   2   3   75.09    3.73
  -7  -2   1  691.12    5.61
   7   2  -1  705.99    5.62
   7  -2   1 2301.09   20.32
   7   2   1 2046.58   10.53
   7   2   3  112.45    4.27
  -7  -2  -3  123.76    4.72
  -7  -2  -5   53.30    5.58
   7   2   5   66.86    6.13
  -7  -2  -7  144.27    9.47
   7  -3 -28   19.10   12.69
   7  -3 -26    3.55   12.64
  -7   3  26   33.79   13.98
   7  -3 -24   26.27   12.66
  -7   3  24   12.34   13.42
   7  -3 -22   26.89   11.86
  -7   3  22   20.64   13.30
  -7   3  20   69.63   13.25
   7  -3 -20   66.40   12.69
   7  -3 -18   63.29   10.84
  -7   3  18   31.01   10.43
   7  -3 -16   89.03    9.89
  -7   3  16   60.48    9.07
   7  -3 -14   92.61    9.71
  -7   3  14   17.99    6.84
  -7  -3  12   19.70   15.17
  -7   3  12   59.07    7.46
  -7   3  10  378.89   14.57
   7  -3 -10  323.74   13.08
  -7   3   8   93.24    6.56
  -7   3   8   84.27    5.71
   7  -3  -6  405.58    9.99
   7   3  -6  562.28    9.41
   7   3  -4  783.41    8.23
  -7  -3   4  711.79    8.17
   7  -3  -2   12.11    1.73
   7  -3  -2   25.38    3.28
  -7   3   2   18.29    3.01
   7   3  -2   25.23    2.32
  -7  -3   2   28.38    2.77
   7  -3   0   22.85    2.78
  -7   3   0   19.64    2.66
   7   3   2  474.42    6.51
  -7  -3  -2  461.62    6.58
   7  -3   4  294.46   14.60
  -7   3  -4  351.82   16.38
  -7  -3  -6   92.89    4.82
   7   3   6   92.54    5.01
  -7  -3  -8   34.09    6.27
   7   3   8   33.90    6.46
   7   3  10   31.20    8.00
  -7  -3 -10   10.67    8.45
   7  -4 -29   18.11   10.59
  -7   4  29   26.22   12.27
   7  -4 -27    4.55   10.43
  -7   4  27   11.31   12.12
   7  -4 -25   -3.09    9.83
  -7   4  25   21.81   10.74
   7  -4 -23   18.99    9.40
  -7   4  23   12.30    9.84
  -7   4  21   21.16   10.97
   7  -4 -21    3.13    8.64
  -7   4  19   47.38   10.31
   7  -4 -19   34.26    8.48
  -7   4  17  144.38   11.61
   7  -4 -17  110.28   10.98
   7  -4 -15   51.26    8.22
  -7  -4  15   67.37   17.29
  -7   4  15   28.50    7.35
   7   4 -13   78.75   19.95
  -7  -4  13   31.70   18.54
   7  -4 -13   33.91    8.30
   7  -4 -13   42.28    7.62
  -7   4  13   54.67    7.93
  -7  -4  11   17.85    8.93
   7   4 -11   18.51    9.02
  -7   4  11   11.18    5.60
   7  -4 -11   23.09    5.73
  -7   4  11    7.56    6.32
   7  -4 -11   30.78    6.26
  -7  -4   9  249.15   10.39
   7   4  -9  348.80   11.52
  -7   4   7   76.14    5.20
   7  -4  -7  151.73    4.57
   7   4  -5  303.49    6.34
  -7  -4   5  253.32    6.22
   7  -4  -3    6.16    2.28
  -7  -4   3    7.78    1.16
   7   4  -3    5.76    1.15
  -7   4   3    1.42    2.12
   7  -4  -3    4.95    1.71
   7   4  -3    2.35    2.17
  -7   4   3    7.14    1.58
  -7  -4   3    3.54    2.35
   7  -4  -1   10.20    1.94
  -7   4   1    8.63    2.88
   7  -4   1   21.34    3.04
   7   4   1   35.64    2.56
  -7  -4  -1   42.28    2.76
  -7   4  -1   39.73    3.16
  -7  -4  -1   47.74    4.23
   7   4   1   50.99    4.55
  -7  -4  -3   22.29    6.06
   7   4   3    9.93    6.29
   7  -4   3   25.15    6.40
  -7   4  -3    7.23    5.68
   7   4   5  423.46    7.65
  -7  -4  -5  445.37    7.63
   7   4   5  354.70   14.93
  -7  -4  -5  407.15   15.96
   7  -4   5  448.31   15.69
   7  -4   7   -5.09   11.56
  -7   4  -7   -4.99   12.35
  -7  -4  -9   26.67    5.25
   7   4   9   10.36    5.02
  -7  -4 -11  301.82   11.32
   7   4  11  381.12   12.07
   7   4  13   82.86    9.45
  -7  -4 -13   73.49   10.43
   7  -5 -26   -1.03    7.45
  -7   5  26   -5.48    7.98
  -7   5  24    3.96    7.73
   7  -5 -24    5.39    7.73
   7  -5 -22   -4.65    6.58
  -7   5  22   -0.83    6.67
  -7   5  20   -3.52    5.81
   7  -5 -20   11.25    5.81
  -7  -5  18    8.28   14.62
   7   5 -18   69.63   16.99
  -7   5  18   25.68    6.63
   7  -5 -18   27.86    6.99
  -7  -5  16   14.89   14.49
   7  -5 -16   35.12    8.63
   7  -5 -16   40.35    7.69
  -7   5  16   25.74    7.10
  -7   5  14   21.60    6.48
  -7  -5  14   63.66   14.82
   7  -5 -14   37.75    6.84
   7  -5 -12   34.23    5.00
  -7   5  12   48.18    5.27
  -7   5  12   39.64    7.24
   7  -5 -12   43.49    7.37
  -7  -5  12   66.65   10.04
   7  -5 -10  433.50   14.01
   7   5 -10  741.19   16.24
  -7   5   8   16.94    4.03
   7  -5  -8   29.59    4.43
  -7   5   8   24.34    3.31
   7  -5  -8   30.72    3.37
   7  -5  -6   62.14    5.07
  -7   5   6   59.66    5.11
   7  -5  -6   37.42    3.08
  -7   5   4   75.25    2.90
   7   5  -4   73.74    3.57
  -7  -5   4   67.24    3.08
  -7   5   4   71.34    4.56
  -7  -5   2  474.62    7.25
   7   5  -2  470.85    6.54
   7   5  -2  554.66    8.21
  -7  -5   2  485.01    7.44
   7  -5   0   24.30    2.78
  -7   5   0   29.28    2.60
  -7   5  -2   89.65    4.31
   7  -5   2   50.88    4.01
  -7  -5  -4   69.39    4.08
  -7   5  -4   91.49    7.27
  -7  -5  -4   89.98    7.10
   7   5   4   79.93    7.01
  -7  -5  -6    1.31    3.05
   7   5   6    7.78    3.20
   7   5   6    3.48    6.78
  -7  -5  -6    5.00    7.27
   7  -5   6   -3.24    8.43
  -7   5  -6   10.84    7.49
   7   5   8   60.36    4.76
  -7  -5  -8   56.30    5.24
   7   5   8   57.09   10.21
  -7  -5  -8   63.40   10.54
   7  -5   8   29.72   16.53
  -7   5  -8   36.84   14.24
   7   5  10   52.96    4.85
  -7  -5 -10   53.03    5.25
   7  -5  10   44.49   14.38
  -7   5 -10   36.24   14.95
   7   5  12   36.07    5.25
  -7  -5 -12   48.28    5.77
   7   5  14    7.25    6.10
  -7  -5 -14    4.65    6.60
   7   5  16   33.63    7.53
  -7  -5 -16    1.46    7.13
   7  -6 -23    2.36    4.92
  -7   6  23   -5.04    3.85
   7  -6 -21   21.87    6.41
  -7   6  21    6.54    5.68
   7   6 -21    2.41   13.31
  -7   6  19   -2.61    4.12
   7  -6 -19    1.37    4.93
   7  -6 -19   -5.10    6.71
   7   6 -19  -24.89   14.31
  -7  -6  19   -3.47   11.11
   7  -6 -17   -5.71    4.71
  -7   6  17   -1.26    4.02
   7  -6 -17    0.84    5.27
  -7   6  17   14.28    6.08
  -7  -6  17   -5.54   13.79
   7   6 -17   36.76   12.52
  -7   6  15   12.92    5.38
  -7  -6  15    7.10    7.68
   7   6 -15   10.59    7.69
   7  -6 -15    7.61    3.82
  -7   6  15    8.44    4.09
  -7  -6  13    3.83    7.31
  -7   6  13    1.04    4.35
   7  -6 -13    8.22    4.87
   7  -6 -13   -3.22    3.24
  -7   6  13    1.58    2.90
   7   6 -11   32.77    6.40
  -7   6  11   17.89    3.25
   7  -6 -11   19.38    3.57
  -7   6  11   21.37    5.07
   7  -6 -11    4.67    3.92
  -7  -6   9   27.06    4.76
   7  -6  -9   20.16    3.84
   7  -6  -9    7.88    2.52
  -7   6   9   13.56    2.54
  -7   6   9   24.67    4.23
   7  -6  -7   30.80    4.35
  -7   6   7   29.63    4.17
  -7   6   5   13.34    2.00
   7  -6  -5   19.90    2.34
  -7   6   5   14.91    3.41
   7  -6  -5    8.10    2.83
   7   6  -5   11.92    2.03
   7   6  -5   15.40    2.68
  -7  -6   5   14.24    3.19
   7  -6  -3   21.42    3.11
   7  -6  -3   30.28    2.42
   7   6  -3   33.48    2.54
  -7   6   3   36.60    3.85
  -7  -6   3   27.22    2.25
  -7   6   1    7.08    2.08
   7   6  -1    0.09    1.78
  -7  -6   1    0.63    2.04
  -7  -6   1    4.80    1.97
   7  -6  -1    7.19    2.91
   7   6   1   22.96    2.36
  -7   6  -1   12.10    2.42
   7  -6   1   16.76    3.00
  -7  -6  -1   20.59    3.38
  -7  -6  -3   13.08    2.54
   7   6   3   12.93    2.26
   7   6   3    6.62    3.96
  -7  -6  -3    8.33    3.88
   7  -6   3    1.63    2.96
  -7   6  -3    0.36    2.68
   7   6   5   30.82    5.34
   7   6   5   50.80    3.52
  -7   6  -5   47.69    5.59
  -7  -6  -5   59.35    6.19
  -7  -6  -7    4.93    4.85
   7   6   7    5.42    4.67
   7  -6   7   -0.28    6.62
   7   6   7    2.39    2.41
  -7  -6  -7   -0.66    2.65
  -7   6  -7   -1.01    5.81
   7   6   9    9.72    3.04
  -7  -6  -9    5.93    3.46
   7   6   9   -2.88    6.46
  -7  -6  -9   17.07    7.16
   7  -6   9   11.72    9.04
  -7   6  -9    8.80    7.07
  -7  -6 -11    2.44    3.37
   7   6  11    2.08    2.85
   7   6  11   -6.32    6.67
  -7  -6 -11   -2.03    7.70
   7  -6  11    5.29   11.65
  -7   6 -11    3.95   12.98
   7   6  13    4.20    3.52
   7   6  13   -4.20    8.28
   7  -6  13    8.28   12.35
  -7   6 -13   -6.00   11.30
  -7  -6 -15   -6.50    4.27
  -7  -6 -15   -2.76    9.69
   7   6  15    4.90    4.17
   7   6  17    2.58    5.62
  -7  -6 -17   -2.43    5.60
   7   6  19   18.88    6.71
  -7  -6 -19   -2.10    6.14
  -7  -7  16  -11.55    6.94
   7   7 -16    1.29    6.31
   7  -7 -16    8.72    5.09
  -7   7  16   12.32    4.98
   7  -7 -16    0.20    3.06
  -7   7  16    7.03    3.31
  -7  -7  14   29.86    6.88
   7   7 -14   27.66    6.59
  -7   7  14    9.17    4.33
   7  -7 -14   27.13    5.69
   7  -7 -14   14.89    3.44
  -7   7  14   27.02    3.55
  -7  -7  12   17.39    5.93
   7   7 -12   14.17    5.01
  -7   7  12   10.67    2.81
   7  -7 -12    9.35    2.85
   7  -7 -12    2.38    3.44
  -7   7  12    6.34    4.09
   7   7 -10    4.48    3.09
  -7  -7  10    7.42    4.11
   7  -7 -10    3.30    2.74
  -7   7  10   -1.28    2.41
   7  -7  -8    0.72    2.61
  -7   7   8    3.48    2.46
  -7   7   8    6.25    1.91
   7  -7  -8    5.50    2.16
  -7  -7   8    8.98    3.17
   7   7  -8    9.36    2.72
   7  -7  -6    4.95    1.74
  -7   7   6    9.04    2.84
   7  -7  -6    3.99    2.34
  -7  -7   6    7.54    2.93
   7   7  -6   10.37    2.28
   7  -7  -4    3.94    1.59
  -7  -7   4   -1.20    1.95
  -7   7   4    3.12    1.41
  -7   7   4    3.72    2.11
   7  -7  -4    5.18    2.32
  -7  -7   4    0.46    1.07
   7   7  -4    1.67    1.32
  -7  -7   2   10.06    2.33
   7  -7  -2    9.04    1.99
  -7   7   2    4.33    1.39
  -7   7   2    8.28    2.30
   7  -7  -2   -2.11    1.65
  -7  -7   2    6.48    1.65
   7   7  -2    4.34    1.68
   7   7   0    3.60    1.78
  -7  -7   0    4.20    1.86
  -7   7   0    3.95    1.67
  -7  -7   0    4.12    1.98
   7   7   0   10.32    2.35
   7  -7   0   11.26    2.95
  -7   7   0   14.45    3.12
   7  -7   0    5.41    1.95
  -7  -7  -2   -0.32    1.72
   7   7   2    1.68    1.54
  -7  -7  -2    2.34    2.45
   7   7   2   13.04    3.74
  -7   7  -2    9.93    2.24
   7  -7   2    2.31    2.75
  -7  -7  -4   11.11    4.58
   7   7   4    7.93    3.23
  -7   7  -4    3.67    2.74
   7  -7   4   -0.94    2.69
   7  -7   6    8.33    5.17
  -7   7  -6   -0.20    3.37
  -7  -7  -6    4.34    3.66
  -7  -7  -6    5.78    2.40
   7   7   6    3.42    3.40
   7   7   8    1.93    2.15
  -7  -7  -8    2.94    2.45
  -7  -7  -8   11.01    4.36
   7   7   8    5.13    3.46
   7  -7   8    2.42    5.76
  -7   7  -8    6.04    5.35
   7   7  10    3.91    2.69
  -7  -7 -10    2.57    2.90
  -7  -7 -10    5.93    5.50
   7   7  10   15.70    6.04
  -7   7 -10    2.12    5.76
   7  -7  10    1.49    6.64
  -7  -7 -12    5.15    3.31
   7   7  12   11.10    3.10
   7  -7  12   18.95   12.22
  -7   7 -12    3.28    8.08
   7   7  12   22.82    6.95
  -7  -7 -12   10.23    6.40
   8   0 -14  577.11   22.52
  -8   0  14  770.57   25.36
  -8   0  12   17.02    9.88
   8   0 -12   10.93    9.53
  -8   0  10  437.32   13.32
   8   0 -10  472.14   13.41
   8   0  -8 1816.92   20.01
  -8   0   8 1575.13   18.96
  -8   0   6  434.99    9.06
   8   0  -6  352.95    8.01
   8   0  -4   22.04    9.57
  -8   0   4   29.77   10.82
  -8   0   2  493.68    2.53
   8   0  -2  475.10    2.49
   8   0   0  436.14    5.65
  -8   0   0  386.42    5.27
   8  -1 -19   34.79   14.45
  -8   1  19   31.48   13.72
  -8   1  17    8.20   12.32
   8  -1 -17   -1.28   10.39
   8  -1 -15   80.75   11.89
  -8   1  15  106.13   13.08
  -8   1  13  482.81   16.98
   8  -1 -13  414.38   15.50
  -8   1  11  342.38   12.31
   8  -1 -11  489.76   13.75
  -8   1   9  970.11   17.77
   8  -1  -9 1087.77   18.42
  -8  -1   7  735.21   11.37
  -8   1   7  732.85   13.26
   8  -1  -7  721.22   12.69
   8   1  -5  910.93   10.45
   8   1  -5  823.42    8.52
   8   1  -3  311.01    3.80
  -8  -1   3  277.87    3.71
  -8  -1   1  219.88    3.00
   8   1  -1  211.39    3.01
  -8  -1  -1   46.38    3.23
   8   1   1   32.91    3.17
   8   1   3 1480.77   13.83
  -8  -1  -3 1089.52   11.74
   8  -2 -24   32.82   15.69
  -8   2  24  -21.30   12.00
   8  -2 -22   21.78   13.00
  -8   2  22   -1.98   14.68
  -8   2  20  134.49   15.85
   8  -2 -20  126.11   15.25
  -8   2  18    4.77    9.51
   8  -2 -18    5.93    9.81
   8  -2 -16   57.06    9.70
  -8   2  16   43.55    9.94
   8  -2 -14   70.90    8.90
  -8   2  14   63.14    8.35
   8  -2 -12   68.04    9.07
  -8   2  12   46.59    8.37
   8   2 -10  795.76   23.12
   8  -2 -10  839.17   20.02
   8  -2  -8  387.97   11.10
  -8   2   8  282.93   10.11
   8  -2  -6    8.19    3.80
  -8   2   6   11.47    3.62
   8  -2  -6   15.46    5.30
  -8   2   6   17.82    5.01
   8   2  -6   25.78    6.60
  -8  -2   6   21.99    6.15
   8  -2  -4   25.17    3.09
  -8   2   4   32.69    3.15
   8   2  -2 1134.47    6.99
  -8  -2   2 1219.40    7.08
   8   2   0   82.08    2.97
  -8  -2   0   83.01    3.11
  -8   2   0   78.85    5.39
   8  -2   0   74.32    5.48
   8   2   2  637.67    7.29
  -8  -2  -2  290.62    5.39
  -8  -2  -4  102.88    4.97
   8   2   4   88.57    4.96
  -8  -2  -6  184.90    8.95
   8   2   6  378.33   10.58
   8  -3 -31   16.62   11.50
   8  -3 -29    7.56   12.28
  -8   3  29   -3.74   10.19
  -8   3  27  -16.02   10.53
   8  -3 -27   33.47   13.94
  -8   3  25   17.94   12.88
   8  -3 -25   41.56   12.46
   8  -3 -23   28.25   13.11
  -8   3  23   21.36   12.70
  -8   3  21  111.19   14.19
   8  -3 -21   49.81   11.51
   8  -3 -19   30.46   10.07
  -8   3  19   28.17   10.30
   8  -3 -17   49.85    9.00
  -8   3  17   25.86    8.38
   8  -3 -15  413.08   15.48
  -8   3  15  241.03   12.20
   8   3 -13   38.14   17.22
  -8  -3  13   -9.84   15.09
  -8   3  13   34.79    6.92
  -8   3  11   79.36    9.59
   8  -3 -11  111.60    9.50
  -8  -3   9    7.51    8.55
   8   3  -9   26.57    8.52
   8  -3  -9   16.44    4.76
  -8   3   9   25.37    5.61
  -8   3   7   27.80    4.12
   8  -3  -7   19.94    3.38
  -8   3   7    5.98    3.27
   8   3  -7   24.43    6.01
  -8  -3   7   15.86    6.19
  -8   3   5  118.83    3.16
   8  -3  -5  131.78    5.80
   8  -3  -3   40.30    3.15
   8   3  -3   48.93    3.07
  -8  -3   3   47.18    3.00
   8   3  -1   14.84    2.10
  -8  -3   1   10.47    2.29
  -8   3   1   13.47    2.67
  -8   3   1    8.82    2.00
   8  -3  -1    7.21    2.27
   8   3   1  652.65    7.19
  -8  -3  -1  597.64    6.81
   8  -3   3  121.24   16.25
  -8   3  -3   87.76   12.95
   8   3   3  105.09    4.02
  -8  -3  -3  103.90    4.10
  -8  -3  -5  238.60    6.25
   8   3   5  298.33    6.89
  -8  -3  -7  368.77    8.73
   8   3   7  437.54    9.28
   8   3   9  237.74   10.14
  -8  -3  -9  139.62    9.26
  -8   4  30   -4.28   11.85
   8  -4 -30   15.26   11.37
  -8   4  28    2.48   10.28
   8  -4 -28   12.74   10.16
   8  -4 -26   27.95   10.66
  -8   4  26   44.62   11.70
  -8   4  24   23.29   10.09
   8  -4 -24   30.64   10.04
   8  -4 -22   28.64    9.48
  -8   4  22   14.63    8.94
   8  -4 -20   33.90    8.59
  -8   4  20   15.52    8.41
  -8   4  18   11.20    8.17
   8  -4 -18   35.81    8.59
   8   4 -16   38.89   18.93
  -8   4  16    6.82    6.38
   8  -4 -16    9.67    7.35
  -8   4  14   17.54    6.30
   8   4 -14   20.01   19.81
  -8  -4  14   -5.95   15.24
   8   4 -12    5.32    9.45
  -8  -4  12    7.22   11.72
   8  -4 -12   26.32    7.02
  -8   4  12   20.19    7.00
  -8   4  10  233.52    6.85
   8   4 -10  292.01   11.17
  -8  -4  10  226.98   11.07
   8  -4  -8    4.49    3.19
  -8   4   8   13.51    3.54
   8  -4  -8    1.60    3.07
  -8   4   8    4.18    2.84
   8   4  -8   18.47    5.22
  -8  -4   8   12.22    5.73
   8  -4  -6  311.86    5.25
  -8  -4   6  274.87    6.58
   8   4  -6  269.01    6.31
   8  -4  -6  262.77    8.73
   8   4  -4   19.25    2.56
  -8   4   4   11.51    2.84
   8  -4  -4   13.47    2.90
  -8  -4   4   18.47    2.60
  -8  -4   2    2.20    2.12
   8   4  -2    3.27    1.89
   8  -4  -2    8.69    1.89
  -8   4   2    4.51    1.49
  -8  -4   2    8.04    1.89
   8  -4  -2    2.66    2.56
  -8   4   2   11.19    2.92
   8  -4   0   49.91    3.08
  -8   4   0   73.06    3.21
   8   4   2  791.72   16.30
  -8  -4  -2 1097.62   18.44
  -8  -4  -4  360.82    6.84
   8   4   4  368.63    6.89
  -8  -4  -4  387.90   14.87
   8  -4   6    1.00   11.90
  -8   4  -6   -1.18   14.49
  -8  -4  -6    9.26    4.18
   8   4   6   12.56    3.66
   8   4   8  113.89    5.68
  -8  -4  -8   89.83    5.63
  -8  -4 -10   75.97    6.69
   8   4  10  112.84    7.37
   8   4  12  131.77    9.83
  -8  -4 -12   59.11    8.85
  -8  -4 -14   11.21    9.18
  -8   5  27   -8.93    7.57
   8  -5 -27    1.06    7.69
   8  -5 -25   15.68    7.32
  -8   5  25   -4.04    6.47
  -8   5  23   -3.42    5.73
   8  -5 -23   -3.94    6.35
  -8   5  21   13.02    6.75
   8  -5 -21   16.93    6.67
  -8   5  19    3.04    5.40
   8   5 -19  -38.64   15.33
  -8  -5  17    3.01   13.22
   8   5 -17   -2.14   16.29
  -8   5  17    8.95    6.00
   8  -5 -17   14.82    6.41
  -8  -5  15   -9.83   14.89
   8   5 -15    4.21   13.40
  -8   5  15    9.15    5.41
   8  -5 -15    0.58    6.35
   8   5 -13    4.36    9.04
  -8  -5  13   -9.24    9.22
   8  -5 -13    8.02    4.97
  -8   5  13   15.81    5.39
   8   5 -11   47.50    8.73
  -8  -5  11   17.17    8.10
  -8   5  11   14.66    3.81
   8  -5 -11   22.58    5.27
  -8   5  11   39.38    6.31
  -8  -5   9   17.17    6.45
   8   5  -9   13.44    4.99
  -8   5   9    4.10    3.31
   8  -5  -9   11.66    3.52
  -8   5   9    4.32    3.77
   8  -5  -7   -0.59    3.19
  -8   5   7    1.70    3.14
  -8   5   7    4.81    2.35
  -8  -5   7   -0.65    3.53
   8  -5  -5   45.39    2.69
  -8   5   5   53.44    2.79
   8  -5  -5   60.43    4.55
  -8   5   5   52.22    4.59
   8   5  -5   61.46    3.66
  -8  -5   5   58.77    3.95
  -8  -5   3   13.75    2.96
   8   5  -3   12.58    1.96
  -8   5   3    9.38    2.86
   8  -5  -3    6.69    2.49
   8  -5  -1   53.26    5.16
  -8   5   1   58.40    2.77
   8  -5   1   22.14    3.37
  -8   5  -1   20.60    3.28
  -8  -5  -3   -2.91    4.51
   8   5   3   10.57    5.38
  -8   5  -3    6.64    4.25
   8  -5   3   12.95    5.75
  -8   5  -5   24.04    7.11
  -8  -5  -5   30.02    3.52
  -8  -5  -5   29.98    7.36
   8   5   5   26.49    8.50
   8  -5   5    8.08    7.61
   8   5   7   22.35    4.11
  -8  -5  -7    7.25    3.67
  -8  -5  -7   36.84    9.93
   8   5   7   12.75    9.37
   8  -5   7   30.14   13.42
  -8   5  -7    1.54    9.22
   8   5   9   22.72    4.05
  -8  -5  -9   32.23    4.56
  -8  -5  -9   26.87   10.82
   8  -5   9   61.28   14.09
  -8   5  -9   67.32   14.96
   8   5  11    9.23    4.39
  -8  -5 -11   10.04    4.32
   8   5  13    1.36    5.53
  -8  -5 -13    5.89    5.36
   8   5  15    3.53    6.71
  -8  -5 -15   -1.97    6.66
  -8  -5 -17   -1.17    7.30
   8  -6 -22    8.49    5.57
   8   6 -22   15.47   14.76
  -8   6  20    6.08    4.63
   8  -6 -20   19.04    6.15
   8  -6 -20   11.28    7.20
  -8  -6  20   -7.97   11.11
   8   6 -20   -4.79   12.87
  -8   6  18   -6.52    3.63
   8  -6 -18    3.30    4.71
   8  -6 -18    6.70    6.36
  -8   6  18   -1.98    5.87
   8   6 -18    4.35   12.37
  -8  -6  18  -33.98   13.80
  -8   6  16    1.20    4.38
   8  -6 -16    7.23    4.18
  -8   6  16    7.83    4.52
   8   6 -16   12.39    8.09
  -8  -6  16   19.33    9.76
  -8  -6  14   14.16    7.23
   8   6 -14    4.30    7.02
  -8   6  14   -0.54    3.08
   8  -6 -14   -3.37    3.46
  -8   6  14    4.79    4.56
   8  -6 -14    4.04    4.83
  -8  -6  12   61.07    8.16
  -8   6  12   50.54    6.64
   8  -6 -12   65.49    6.67
   8  -6 -10   14.49    2.92
  -8   6  10    8.66    4.09
   8  -6 -10   11.40    3.79
  -8   6   8   -0.99    2.79
   8  -6  -8    1.66    3.11
  -8   6   8   -1.20    2.07
   8   6  -8    3.04    3.25
  -8  -6   8   -0.92    3.29
  -8   6   6   19.80    2.23
   8  -6  -6   18.25    2.33
  -8   6   6   24.09    3.91
   8  -6  -6   30.99    3.99
  -8  -6   6   33.99    3.87
   8  -6  -4   70.87    3.01
  -8  -6   4   56.57    2.92
   8  -6  -4   63.36    4.83
  -8   6   4   70.21    4.91
   8   6  -4   63.74    3.53
  -8  -6   4   75.45    3.82
   8  -6  -2   21.01    2.41
   8   6  -2   21.72    2.34
   8   6  -2   26.90    2.73
  -8  -6   2   20.56    2.34
   8  -6  -2    8.74    2.66
  -8   6   2   31.89    3.47
  -8   6   2   30.45    2.08
  -8  -6   2   30.26    2.82
   8   6   0   12.44    2.14
  -8  -6   0    8.28    2.19
  -8   6   0   10.35    2.06
  -8   6   0   13.48    3.22
   8  -6   0   10.92    2.46
  -8  -6  -2   15.96    2.53
   8   6   2   11.44    2.24
   8  -6   2    8.00    2.97
  -8   6  -2   12.89    2.83
   8   6   2   13.72    4.03
  -8  -6  -4   42.24    5.37
  -8   6  -4   21.41    4.08
   8  -6   4   28.28    5.31
   8   6   4   45.23    5.52
   8   6   6   35.45    3.30
  -8  -6  -6   30.32    6.39
   8   6   6   44.80    6.82
   8  -6   6   48.97    6.78
  -8   6  -6   19.68    6.04
  -8  -6  -8    6.69    3.03
   8   6   8    6.44    2.93
   8   6   8   -1.72    5.37
  -8  -6  -8    7.90    5.65
   8  -6   8   11.37    7.19
  -8   6  -8    0.31    6.98
   8   6  10    0.72    2.73
  -8  -6 -10    2.62    3.61
  -8  -6 -10    9.18    7.15
   8  -6  10  -11.80   12.96
  -8   6 -10   -2.15   11.04
  -8  -6 -12   -3.64    3.49
   8   6  12    2.77    2.95
   8   6  12   -4.64    7.99
  -8  -6 -12   -4.83    8.56
   8  -6  12    9.44   11.23
  -8   6 -12  -10.81   11.14
  -8  -6 -14    8.07    4.49
  -8  -6 -14   32.39   10.68
  -8  -6 -16    1.76    4.93
   8   6  16   -4.62    4.62
   8   6  18   17.49    6.44
  -8  -6 -18   -1.16    6.25
   8   7 -17   18.73    7.24
  -8  -7  17    7.88    7.13
   8  -7 -17    4.60    3.59
  -8   7  17    6.98    3.69
   8  -7 -17   19.99    6.57
  -8   7  17    7.62    4.70
  -8  -7  15    5.65    6.74
   8   7 -15   18.05    6.55
  -8   7  15    5.07    4.53
   8  -7 -15    0.63    3.89
   8  -7 -15    3.40    3.12
  -8   7  15    8.14    2.97
   8   7 -13    3.68    5.42
  -8  -7  13   23.48    6.71
   8  -7 -13   12.25    3.20
  -8   7  13    6.92    2.58
  -8   7  13    0.56    3.17
   8  -7 -13    3.00    3.57
  -8  -7  11    6.65    4.48
   8   7 -11   11.26    3.99
   8  -7 -11    3.95    2.44
  -8   7  11    8.02    2.41
  -8   7  11   19.49    4.35
   8  -7 -11    6.47    3.38
  -8   7   9    7.10    2.75
   8  -7  -9    0.38    2.28
  -8   7   9    5.11    1.79
   8  -7  -9    5.66    2.30
  -8  -7   9    3.75    2.99
   8   7  -9    1.75    2.71
  -8  -7   7    2.18    2.67
   8   7  -7    5.51    2.32
  -8   7   7    1.81    2.37
   8  -7  -7    3.66    2.62
  -8   7   7    1.77    1.65
   8  -7  -7    0.91    1.74
   8  -7  -5   15.48    2.05
   8   7  -5   17.82    2.40
  -8   7   5   13.61    1.72
   8  -7  -5   18.11    3.05
  -8  -7   5   15.99    2.62
  -8  -7   5   13.49    1.82
   8   7  -3    8.23    1.96
  -8  -7   3    1.84    2.18
   8  -7  -3    1.25    1.52
  -8   7   3    0.73    1.19
   8  -7  -3    5.26    2.02
   8   7  -3    4.46    1.54
  -8   7   3    3.16    2.07
  -8  -7   3    0.54    1.16
  -8   7   1    5.75    1.71
   8  -7  -1    2.54    1.94
  -8  -7   1   -1.51    1.68
   8   7  -1    0.72    1.45
  -8  -7   1    1.60    1.54
   8   7  -1    0.85    1.52
  -8   7   1    0.59    2.27
   8  -7  -1    0.33    2.06
   8  -7   1    7.23    2.30
  -8   7  -1    2.36    1.77
  -8  -7  -1    6.61    1.99
   8   7   1    7.36    1.64
  -8  -7  -1   11.50    2.57
   8   7   1    0.85    2.22
  -8   7  -1    1.57    1.83
   8  -7   3   19.61    3.15
   8   7   3   30.32    2.67
  -8   7  -3   25.64    3.02
   8   7   3   26.32    4.14
   8  -7   5    8.94    4.45
  -8   7  -5   13.51    3.58
  -8  -7  -5    8.13    4.03
  -8  -7  -5    7.20    2.50
   8   7   5    7.55    2.10
   8   7   5    7.84    3.21
   8   7   7   22.03    2.70
  -8  -7  -7    4.49    2.53
   8   7   7   21.48    4.84
  -8   7  -7   22.24    5.60
   8  -7   7   32.86    6.02
  -8  -7  -9    9.48    2.92
   8   7   9   18.48    3.00
  -8   7  -9    1.32    5.87
   8  -7   9   14.52    7.08
  -8  -7  -9    8.25    5.03
   8   7   9   16.40    5.74
   8   7  11   27.58    3.47
  -8  -7 -11   14.86    3.69
  -8   7 -11   19.38    7.32
   8  -7  11    3.55    9.95
   8   7  11   23.10    6.96
  -8  -7 -11   41.77    8.33
   9   0 -17  -12.07   11.54
  -9   0  17   45.74   13.36
  -9   0  15   30.91   12.98
   9   0 -15    1.58   10.79
  -9   0  13   78.92   11.67
   9   0 -13   26.34    9.47
  -9   0  11   -0.29    7.01
   9   0 -11   11.96    6.71
   9   0  -9   23.91    6.66
  -9   0   9   -3.11    5.71
   9   0  -7   -0.17    3.96
  -9   0   7    4.84    4.36
  -9   0   5   17.73    2.92
   9   0  -5    5.03    2.74
   9   0  -3    3.58    1.70
  -9   0   3   -0.95    1.75
   9   0  -1   14.54    2.07
  -9   0   1   24.57    1.99
   9  -1 -22   59.75   15.51
   9  -1 -20   48.32   14.51
  -9   1  20    7.68   13.97
   9  -1 -18  154.34   15.16
  -9   1  18   70.48   13.42
   9  -1 -16   32.88   10.37
  -9   1  16   10.17    9.95
   9  -1 -14  149.70   11.39
  -9   1  14  122.29   11.45
   9  -1 -12  751.03   17.13
  -9   1  12  710.59   16.61
   9   1 -10 1985.94   25.20
   9  -1 -10 2293.10   26.80
  -9  -1   8  137.81    6.63
   9  -1  -8  172.45    8.14
  -9   1   8  175.77    8.12
   9   1  -6  204.29    8.09
   9   1  -6  202.48    5.97
   9  -1  -6  230.39    6.77
  -9  -1   6  240.53    6.42
  -9   1   4 1195.69   11.87
   9   1  -4 1216.09    7.71
   9   1  -2  869.54    4.94
  -9  -1   2  726.39    4.65
   9   1   0  466.96    4.82
  -9  -1   0  474.60    4.78
  -9  -1  -2 1096.85    9.53
   9   1   2 1248.40   10.15
   9  -2 -27   -9.91   12.01
  -9   2  25   17.27   13.99
   9  -2 -25    4.30   13.65
   9  -2 -23   23.72   12.48
  -9   2  23   17.12   14.46
   9  -2 -21   26.68   11.88
  -9   2  21   -1.70   11.84
   9  -2 -19   57.87   11.67
  -9   2  19   68.51   12.61
   9  -2 -17   72.00   10.09
  -9   2  17   60.70   10.34
   9  -2 -15   40.90    8.36
  -9   2  15   19.31    7.46
   9  -2 -13  108.93   10.02
  -9   2  13   79.13    9.24
   9  -2 -11   42.16    7.91
  -9   2  11   60.28    7.79
   9   2  -9  853.84   22.37
  -9  -2   9  432.18   21.08
  -9  -2   7  603.55   11.86
   9   2  -7  838.38   12.92
   9   2  -5 1200.04    9.67
  -9  -2   5 1046.52    8.88
  -9   2   3  142.74    5.40
  -9  -2   3  103.43    3.28
  -9  -2   1  927.86    6.61
   9   2  -1  941.99    6.72
   9   2   1  394.29    5.57
  -9  -2  -1  598.99    6.55
  -9  -2  -3   32.74    3.94
   9   2   3   26.37    3.85
   9   2   5   63.64    5.97
  -9  -2  -5   46.57    5.48
  -9  -2  -7  154.05    9.79
   9  -3 -32    6.68   10.86
  -9   3  30  -16.95    9.85
   9  -3 -30    2.65   11.10
   9  -3 -28    5.89   11.11
  -9   3  28   11.68   12.85
  -9   3  26   24.43   12.66
   9  -3 -26   35.51   12.14
   9  -3 -24   13.81   10.86
  -9   3  24   18.76   12.29
  -9   3  22   17.03   11.07
   9  -3 -22   13.07   10.27
  -9   3  20   20.88    9.63
   9  -3 -20   38.53    9.68
   9  -3 -18   15.05    7.62
  -9   3  18   18.21    8.26
  -9   3  16   34.04    7.28
   9  -3 -16   84.48    9.19
  -9   3  14  161.53   10.56
   9  -3 -14  302.98   13.56
   9  -3 -12   45.34    7.73
  -9   3  12   28.46    7.69
   9   3 -12   47.62   19.64
  -9  -3  12    1.82   15.80
  -9   3  10  954.66   19.29
   9   3 -10 1474.29   21.04
   9  -3  -8    6.50    3.30
   9  -3  -8   16.00    4.06
  -9   3   8   11.28    4.75
  -9  -3   8   13.50    7.16
   9   3  -6 1258.97   11.53
   9  -3  -6 1158.55    8.96
  -9   3   6 1158.99    8.97
   9  -3  -4  901.38    5.89
   9   3  -4  810.73    7.60
   9  -3  -2   12.98    1.76
  -9  -3   2    8.78    2.12
  -9   3   2   11.27    1.72
   9   3  -2   10.57    2.09
   9   3   0    7.58    2.12
  -9  -3   0   10.94    2.26
   9  -3   0   10.17    3.55
  -9   3   0    6.01    3.15
   9  -3   2  279.26   11.53
   9   3   2  231.83    4.98
   9   3   4   23.89    3.68
  -9  -3  -4   19.44    3.93
  -9  -3  -6  188.21    6.05
   9   3   6  175.08    6.19
   9   3   8  571.09   12.21
  -9  -3  -8  314.57    9.90
  -9  -3 -10  189.26   11.40
   9   3  10  188.66   10.17
   9  -4 -29  -20.07    7.83
  -9   4  29   -2.50    8.46
   9  -4 -27    5.20    8.39
  -9   4  27   -7.98    8.76
  -9   4  25    1.00    7.97
   9  -4 -25   27.63    9.67
   9  -4 -23   59.05   10.52
  -9   4  23   42.63   10.87
   9  -4 -21    2.06    6.79
  -9   4  21   10.88    7.22
  -9   4  19   65.02    9.18
   9  -4 -19  151.30   11.97
  -9   4  17   76.30    9.19
   9   4 -17  118.11   21.47
   9  -4 -15    1.01    5.90
  -9   4  15    4.09    6.10
  -9  -4  15   10.21   15.34
   9   4 -15   32.69   17.88
   9   4 -13 1031.14   23.99
  -9  -4  13  451.87   21.18
  -9   4  11  251.44    8.33
   9  -4 -11  218.99   10.65
   9   4 -11  275.30   11.91
   9  -4  -9   54.69    5.09
   9  -4  -9   56.67    4.06
  -9   4   9   51.35    3.72
  -9   4   9   29.92    4.45
  -9  -4   7  190.99    6.19
   9   4  -7  246.46    6.48
   9  -4  -7  188.14    7.97
   9  -4  -7  236.17    4.83
   9  -4  -5   37.35    3.63
  -9   4   5   49.84    4.00
  -9  -4   5   49.79    3.72
   9   4  -5   53.70    3.38
   9   4  -3  543.08    6.24
   9   4  -3  531.17    7.04
   9  -4  -1    6.60    2.09
  -9   4   1    2.34    1.64
   9   4  -1    9.66    3.12
   9   4  -1    3.51    1.96
  -9  -4   1    2.32    1.95
  -9   4   1    4.22    2.38
  -9   4  -1   10.80    3.35
   9  -4   1   -1.34    3.65
  -9  -4  -1    8.01    2.49
   9   4   1    8.67    2.40
   9   4   1    6.09    6.30
  -9   4  -3   41.14    6.68
   9   4   3   62.99    3.52
  -9   4  -5   29.17   14.06
   9  -4   5  117.55   16.09
  -9  -4  -7  245.26    7.31
   9   4   7  261.26    7.23
   9   4   9   10.79    5.26
  -9  -4  -9   15.69    5.29
   9   4  11   26.56    7.29
  -9  -4 -11   24.48    7.34
   9   4  13  238.95   11.81
  -9  -4 -13   89.61   10.05
   9  -5 -26   -7.46    6.26
  -9   5  26    3.09    8.25
   9  -5 -24    4.05    6.28
  -9   5  24   13.17    7.24
  -9   5  22    9.65    6.72
   9  -5 -22   11.72    6.69
   9  -5 -20  100.88   10.04
  -9   5  20   30.57    7.14
   9   5 -20  113.98   19.77
  -9  -5  18   -9.51   12.59
   9   5 -18   34.01   15.84
  -9   5  18   10.56    5.73
   9  -5 -18   30.85    7.12
  -9  -5  16   49.51   18.72
   9   5 -16   36.11   15.15
   9  -5 -16   -8.87    7.47
  -9   5  16   18.14    6.46
   9  -5 -16    8.33    6.01
  -9  -5  14   -1.05    9.27
   9  -5 -14   12.00    6.24
  -9   5  14    8.81    6.59
   9  -5 -14   22.76    6.09
   9  -5 -12   96.86    5.41
  -9   5  12   89.25    8.51
   9  -5 -10   81.89    4.74
  -9   5  10   89.16    4.89
  -9  -5  10  107.33    8.70
  -9   5  10  103.04    7.50
   9  -5 -10   83.69    6.62
   9  -5  -8    7.58    3.67
  -9   5   8    3.94    3.29
  -9   5   8    6.42    2.58
   9  -5  -8    8.03    2.56
  -9  -5   8    8.39    3.99
   9   5  -8   14.71    3.94
  -9  -5   6   38.31    4.07
   9   5  -6   34.04    3.70
  -9   5   6   35.63    2.69
   9  -5  -6   34.71    4.18
  -9   5   6   29.27    3.94
   9   5  -4   15.10    2.84
  -9  -5   4   10.73    2.87
   9  -5  -4   13.48    2.03
  -9  -5   4    4.09    1.14
   9   5  -4   16.27    1.62
  -9   5   4   17.03    3.25
   9  -5  -4   20.53    3.40
  -9   5   2   23.04    3.54
   9  -5  -2   12.79    3.48
  -9  -5   0  100.58    3.88
   9  -5   0  107.28    4.47
  -9   5   0   98.02    3.89
   9   5   2   34.86    3.04
  -9  -5  -2   38.23    3.07
  -9   5  -2   28.61    3.94
   9  -5   2   47.84    4.60
  -9  -5  -2   51.26    5.92
   9   5   2   33.24    5.97
  -9  -5  -4   22.71    7.42
   9   5   4    5.16    7.53
   9   5   4   24.00    3.38
  -9  -5  -4   17.06    3.29
  -9   5  -4   28.28    6.61
   9  -5   4    6.78    5.90
   9   5   6   39.54    4.10
  -9  -5  -6   43.82    4.12
   9   5   6   17.09    8.84
  -9  -5  -6   60.03   11.10
  -9   5  -6   43.50    8.60
   9  -5   6   12.53   10.47
  -9   5  -8   -3.22   16.60
   9  -5   8    4.27   12.74
  -9  -5  -8    7.88    4.19
   9   5   8   13.62    3.71
   9   5  10   77.11    5.19
  -9  -5 -10   63.69    5.32
  -9  -5 -12    8.00    4.82
   9   5  12   11.73    4.51
  -9  -5 -14    8.37    6.31
   9   5  14   14.66    6.44
  -9  -5 -16    9.96    7.58
   9   5  16   12.93    6.97
  -9   6  23   -0.77    4.85
   9  -6 -23   -3.65    4.31
   9   6 -23   13.68   14.84
   9  -6 -21   -5.11    4.32
  -9   6  21    6.30    4.69
  -9  -6  21   -1.53   12.01
   9   6 -21   10.84   12.86
   9  -6 -19    1.37    5.03
  -9   6  19   -6.10    3.89
   9  -6 -19    5.77    7.11
   9   6 -19  -10.51   14.99
  -9  -6  19   12.31   13.78
   9  -6 -17   32.22    7.85
  -9   6  17    5.60    5.36
  -9   6  17   26.45    5.82
   9  -6 -17    9.45    5.22
  -9  -6  17   19.31   11.28
  -9  -6  15  -12.31    7.32
   9   6 -15   13.48    7.00
   9  -6 -15    4.55    3.82
  -9   6  15    4.51    4.95
   9  -6 -15    0.59    4.25
   9  -6 -13   -0.15    3.24
  -9   6  13   -1.79    2.83
   9  -6 -13   14.13    4.60
  -9   6  13   -3.72    3.94
  -9  -6  13   10.21    6.66
  -9  -6  11   23.76    5.98
   9  -6 -11   20.33    3.51
  -9   6  11   22.02    3.19
  -9   6  11   15.60    4.48
   9  -6 -11   11.09    3.98
  -9   6   9    6.32    3.05
   9  -6  -9    7.04    3.25
   9  -6  -9    7.77    2.48
  -9   6   9    4.06    2.21
  -9  -6   9    2.74    3.62
   9   6  -9    1.43    3.34
   9  -6  -7    0.96    2.14
  -9   6   7   10.52    3.25
   9  -6  -7    8.17    3.09
  -9   6   7    5.91    2.08
   9   6  -7    5.54    3.05
  -9  -6   7   -3.05    3.09
   9  -6  -5    6.04    1.87
   9   6  -5    3.70    2.23
  -9   6   5    6.81    2.64
   9  -6  -5    2.88    2.41
   9  -6  -3   16.61    1.91
   9   6  -3   19.56    2.42
   9   6  -3   14.64    2.17
  -9  -6   3   15.45    1.87
  -9   6   3   19.55    3.02
   9  -6  -3    9.41    2.59
  -9   6   1    4.23    1.85
   9   6  -1    6.98    1.75
  -9  -6   1    1.88    2.01
   9  -6  -1    6.14    2.05
  -9  -6   1    1.28    1.93
   9   6  -1    3.43    2.61
  -9   6   1    3.94    2.94
   9  -6  -1   12.33    3.35
  -9  -6  -1   54.78    3.13
   9  -6   1   37.78    3.50
  -9  -6  -3    9.48    2.63
   9  -6   3    1.93    3.55
  -9   6  -3   -0.13    2.86
   9   6   3    9.87    3.80
  -9  -6  -3   12.37    4.15
   9   6   5   -5.52    4.63
   9   6   5    4.92    2.46
  -9  -6  -5    7.28    2.85
   9  -6   5    7.06    5.82
  -9   6  -5   16.83    5.45
  -9  -6  -7   -3.24    2.49
   9   6   7    1.32    2.41
  -9   6  -7    2.79    5.74
   9  -6   7   -3.88    6.49
  -9  -6  -7    1.52    6.12
   9   6   7   -4.36    5.62
   9   6   9    5.10    2.97
  -9  -6  -9   11.17    3.49
  -9   6  -9   -6.07    8.86
   9  -6   9    2.36   12.59
  -9  -6  -9    8.13    7.74
   9   6   9   -4.89    7.26
   9   6  11   14.05    3.45
  -9  -6 -11    9.00    3.69
   9  -6  11   47.22   11.85
  -9   6 -11    9.00   12.96
  -9  -6 -11   20.96    9.60
  -9  -6 -13   26.74    4.44
   9   6  13   24.41    4.09
  -9  -6 -15   17.63    4.98
   9   6  15   42.88    5.57
   9   6  17   -2.27    5.14
  -9  -6 -17   -3.20    5.61
  -9  -7  16   -7.67    6.42
  -9   7  16    0.69    3.45
   9  -7 -16    3.31    4.58
   9  -7 -16    7.17    3.17
  -9  -7  14   12.77    6.42
   9   7 -14   29.68    6.47
  -9   7  14   11.25    4.51
  -9   7  14   16.59    3.15
   9  -7 -14   15.45    3.23
  -9  -7  12   18.86    5.46
   9   7 -12   16.90    4.45
   9  -7 -12    4.59    2.72
  -9   7  12    3.96    2.47
   9  -7 -12   12.68    3.68
  -9   7  12    5.71    3.26
   9  -7 -10    1.57    2.52
  -9   7  10    6.43    1.98
  -9  -7  10   13.74    3.76
   9   7  -8    0.68    2.70
  -9  -7   8   -0.67    2.63
  -9   7   8    1.47    2.53
   9  -7  -8    1.48    2.48
   9  -7  -8    1.17    1.84
  -9   7   6    3.62    1.47
   9  -7  -6    7.48    1.79
  -9   7   6    5.95    2.49
   9  -7  -6    7.26    2.66
  -9  -7   6    7.60    2.58
   9   7  -6    2.58    1.92
   9   7  -6    6.24    1.66
  -9  -7   4   13.47    2.41
   9  -7  -4   13.30    1.82
  -9   7   4   19.20    1.83
   9  -7  -4   20.98    3.10
  -9   7   4   21.39    3.30
  -9  -7   4   10.11    1.50
   9   7  -2    4.70    1.65
  -9   7   2    0.34    1.28
  -9  -7   2    2.74    1.74
   9  -7  -2    6.64    1.87
   9   7  -2    7.74    1.77
  -9  -7   2    1.30    1.42
  -9   7   2    0.56    1.87
   9  -7  -2    8.24    2.36
   9   7   0    0.90    1.46
  -9  -7   0    0.20    1.68
   9  -7   0    2.37    1.92
   9   7   0    0.51    2.08
  -9  -7   0    4.03    2.22
  -9   7   0    1.42    2.41
   9   7   2   25.47    3.75
  -9  -7  -2   19.42    4.09
  -9   7  -2   17.39    2.80
   9  -7   4   -3.00    3.14
  -9   7  -4   -0.58    2.42
  -9  -7  -4    1.72    3.43
  -9  -7  -4    4.27    2.42
   9   7   4   -1.13    1.79
   9   7   4    1.65    2.68
   9   7   6    4.85    2.17
  -9  -7  -6    7.27    2.67
   9   7   6    3.83    3.61
  -9  -7  -6   14.10    4.16
  -9   7  -6   -0.25    4.23
   9  -7   6    4.75    5.36
  -9  -7  -8    3.06    4.64
   9   7   8   -1.14    4.51
  -9   7  -8    1.46    5.21
  -9  -7  -8    7.20    2.78
   9   7   8    4.64    2.33
   9  -7   8    1.65    6.04
   9   7  10   22.44    3.33
  -9  -7 -10   14.94    3.18
   9  -7  10   11.58    8.52
  -9   7 -10    8.98    6.91
   9   7  10   34.70    7.70
  -9  -7 -10   15.35    6.55
 -10   0  18  124.52   15.31
  10   0 -18   96.71   14.67
 -10   0  16  400.53   19.52
  10   0 -16  245.24   15.60
  10   0 -14   -6.06    8.46
 -10   0  14    1.81    9.31
  10   0 -12 1148.64   20.32
 -10   0  12 1077.03   20.21
 -10   0  10  161.55    8.76
  10   0 -10  157.45    8.58
  10   0  -8 2411.31   22.98
 -10   0   8 1991.86   21.21
 -10   0   6  248.38    6.18
  10   0  -6  314.08    6.91
 -10   0   4 1552.11   11.32
  10   0  -4 1589.70   11.96
 -10   0   2 1535.95    5.09
  10   0  -2 1533.98    5.44
  10   0   0 1817.98   10.60
 -10   0   0 1940.67   10.50
  10  -1 -23   14.00   15.19
 -10   1  23   25.99   15.14
  10  -1 -21   61.50   13.73
 -10   1  21   25.53   13.78
 -10   1  19  182.85   17.04
  10  -1 -19  273.14   17.44
 -10   1  17   44.91   10.47
  10  -1 -17   82.50   11.29
  10  -1 -15 1103.82   23.73
 -10   1  15 1052.21   24.07
 -10   1  13  100.41    8.73
  10   1 -13   87.61   11.43
 -10  -1  13   62.39   12.56
 -10  -1  11  112.72    9.56
 -10   1  11  148.80    9.93
  10   1  -9   57.51    5.58
 -10  -1   9   74.11    5.95
 -10   1   9   64.20    7.03
  10   1  -7 2806.13   20.43
 -10  -1   7 2503.61   19.08
  10  -1  -5   41.11    3.35
 -10   1   5   46.39    3.40
 -10  -1   5   49.00    3.92
  10   1  -3  870.04    5.62
 -10  -1   3  892.86    5.76
  10   1  -1  697.23    5.60
 -10  -1   1  859.10    5.79
 -10  -1  -1  322.42    5.33
  10   1   1  430.59    5.83
 -10  -1  -3  111.98    6.54
  10   1   3  159.45    7.61
  10  -2 -30   -5.92   12.03
 -10   2  28   24.35   13.27
  10  -2 -28   55.96   15.33
 -10   2  26   29.85   13.92
  10  -2 -26   20.64   12.48
 -10   2  24   11.99   13.30
  10  -2 -24    5.58   11.13
  10  -2 -22  177.70   16.40
 -10   2  22  156.70   17.37
 -10   2  20    5.14    9.88
  10  -2 -20   24.53   10.88
  10  -2 -18   83.92   10.61
 -10   2  18   96.15   11.38
  10  -2 -16  190.18   11.84
 -10   2  16  160.04   11.51
  10  -2 -14 1053.03   22.65
 -10   2  14  836.10   20.36
  10  -2 -12   71.60    8.48
 -10   2  12   58.35    7.56
  10  -2 -10  202.35    9.84
  10   2 -10  326.02   23.25
  10   2  -8 1290.33   16.65
 -10  -2   8  867.22   14.82
  10   2  -6 1285.00   11.18
 -10  -2   6 1220.22   10.40
  10  -2  -4 1880.59    6.62
 -10   2   4 1973.83    6.93
  10  -2  -2    2.61    1.73
 -10   2   2    8.36    1.70
  10  -2   0  575.11   11.90
 -10   2   0  549.62   11.86
 -10  -2  -2 1677.54   11.89
  10   2   2 1841.34   12.51
 -10  -2  -4   42.10    4.53
  10   2   4   43.46    4.62
  10   2   6  588.71   12.41
 -10  -2  -6  469.31   11.31
  10  -3 -31   14.87   12.54
 -10   3  31   16.45   12.56
  10  -3 -29   17.52   11.68
 -10   3  29   15.89   12.70
 -10   3  27   32.61   12.57
  10  -3 -27   46.00   12.34
  10  -3 -25   90.25   13.61
 -10   3  25   57.03   13.00
  10  -3 -23   16.80    9.91
  10  -3 -21   61.73   11.14
 -10   3  21   28.29   10.32
  10  -3 -19   19.71    8.07
 -10   3  19   18.33    8.24
 -10   3  17   99.00    9.80
  10  -3 -17   56.00    8.75
 -10   3  15   67.18    8.30
  10  -3 -15  126.05   10.38
  10   3 -13  660.56   24.03
  10  -3 -13  314.49   15.04
  10  -3 -11   37.29    5.92
 -10   3  11   25.81    6.16
 -10  -3  11   16.62   11.67
  10   3 -11   45.73    9.62
 -10  -3   9   50.36    7.60
  10  -3  -9   43.00    4.90
 -10   3   9   14.71    4.36
  10  -3  -9   31.35    6.33
 -10   3   9   46.57    6.08
  10   3  -7 1127.44   12.41
  10  -3  -7  866.06   15.22
  10   3  -5   23.02    1.32
  10  -3  -5   23.09    3.44
 -10   3   5   21.92    3.40
  10  -3  -3   30.03    3.59
 -10   3   3   26.25    1.51
  10  -3  -3   26.87    1.57
 -10  -3   1  248.75    4.26
  10   3  -1  240.95    4.15
  10   3   1  380.51    5.94
 -10  -3  -1  394.53    6.06
 -10   3  -3 1283.86   20.91
 -10  -3  -3 1068.30   10.36
  10   3   5  239.92    6.42
 -10  -3  -5  170.82    5.80
 -10  -3  -7  491.92    9.80
  10   3   7  585.42   10.77
  10   3   9   86.42    8.54
 -10  -3  -9   37.16    7.87
 -10   4  30   29.37   11.42
  10  -4 -30   -1.21    8.54
  10  -4 -28   22.34    9.92
 -10   4  28   12.74    9.76
 -10   4  26   16.29   10.08
  10  -4 -26   27.94    9.19
  10  -4 -24   32.03    9.72
 -10   4  24   -8.05    7.38
  10  -4 -22   73.96   10.26
 -10   4  22   29.10    8.76
  10  -4 -20    7.71    7.24
 -10   4  20   13.10    6.78
 -10   4  18   11.47    7.39
  10  -4 -18    7.01    7.04
  10  -4 -16   17.57    7.24
 -10   4  16   10.18    6.62
 -10  -4  16   -0.54   14.67
  10   4 -16   10.00   16.67
  10   4 -14  390.78   21.28
  10  -4 -14  246.31   13.60
 -10   4  12   40.48    6.87
  10  -4 -12   37.29    6.50
  10  -4 -12   13.42    6.64
 -10   4  12   43.67    7.23
  10  -4 -10    7.64    3.74
 -10   4  10    1.34    3.78
  10  -4 -10    5.24    3.90
 -10   4  10   13.84    4.15
 -10  -4  10   26.87    7.84
  10   4  -8  450.89    8.91
 -10  -4   8  355.53    8.61
  10  -4  -6  120.79    6.07
 -10   4   6   83.65    5.18
  10   4  -4   38.10    1.54
 -10   4   4   40.12    3.67
  10  -4  -2   14.84    1.88
 -10   4   2    7.76    1.78
 -10   4   0  102.46    3.68
  10  -4   0   75.92    3.57
 -10  -4  -2   15.27    2.93
  10   4   2   12.93    2.74
  10  -4   2   -2.56    5.36
 -10   4  -2   20.68    5.61
  10  -4   4   14.93   13.36
 -10   4  -4   -2.28    9.79
 -10  -4  -4    4.99    3.01
  10   4   4    5.62    3.03
 -10   4  -6   -9.92   12.42
 -10  -4  -6   48.99    4.87
  10   4   8   18.75    4.35
 -10  -4  -8    2.75    4.25
 -10  -4 -10  193.13    8.45
  10   4  10  259.49    9.56
 -10  -4 -12   59.44    8.67
  10   4  12   74.86    8.98
 -10  -4 -14   70.21   10.14
  10  -5 -27    8.57    7.49
 -10   5  27    5.18    8.08
  10  -5 -25   23.29    7.67
 -10   5  25    8.96    7.00
  10  -5 -23   23.59    6.82
 -10   5  23   21.36    7.36
 -10   5  21   -7.13    4.10
  10  -5 -21   -8.12    5.37
 -10  -5  19   -6.09   12.29
  10   5 -19   15.61   14.57
  10  -5 -19   17.96    6.54
 -10   5  19    3.23    6.06
 -10  -5  17   74.95   18.99
 -10   5  17   37.47    7.04
  10  -5 -17   56.04    8.17
 -10   5  15   65.18    9.02
  10  -5 -15   62.60    7.88
  10  -5 -15   68.60    7.90
 -10  -5  15   59.64   12.32
 -10   5  13   33.55    6.79
  10  -5 -13   29.01    6.47
 -10  -5  13   41.33    9.06
  10  -5 -13   23.92    5.11
 -10   5  13   41.83    5.66
 -10  -5  11   -7.05    7.37
  10   5 -11   16.73    7.52
 -10   5  11    6.20    3.37
  10  -5 -11    2.77    3.68
  10  -5 -11   11.06    4.72
 -10   5  11    9.36    4.40
  10  -5  -9   75.84    6.27
 -10   5   9   68.44    5.78
 -10  -5   9   57.76    5.97
  10   5  -9   75.74    5.34
  10  -5  -7   36.08    4.39
  10  -5  -7   36.03    3.13
 -10   5   5    8.45    1.82
  10   5  -5    6.89    2.62
  10  -5  -5   11.25    2.02
 -10   5   5    0.94    2.67
  10  -5  -5    0.24    2.47
 -10  -5   5    7.78    2.94
  10   5  -5    8.44    1.20
 -10  -5   5    6.19    1.31
 -10   5   3   40.97    3.94
 -10   5   3   45.19    2.35
  10   5  -3   38.03    2.99
  10  -5  -3   39.74    2.29
  10  -5  -1    0.21    2.35
 -10   5   1    2.68    1.94
 -10  -5   1    4.25    2.30
  10   5  -1    7.92    2.33
 -10   5   1   -0.50    2.49
  10   5  -1    0.45    3.18
 -10  -5   1    5.04    3.37
  10   5   1    9.05    2.32
 -10  -5  -1    7.13    2.66
 -10   5  -1    9.84    2.99
  10  -5   1   11.24    3.30
  10   5   1   14.00    5.35
  10   5   3    7.10    7.13
 -10  -5  -3    3.61    6.80
  10   5   3    8.02    2.84
 -10  -5  -3    5.26    3.10
  10  -5   3   19.63    6.68
 -10  -5  -5   19.69    8.91
 -10   5  -5   -0.23    7.24
 -10   5  -7  146.54   17.48
  10  -5   7  118.14   15.84
  10   5   7  206.14    6.99
 -10  -5  -7  195.32    6.73
 -10   5  -9   14.89   13.76
  10   5   9    1.87    3.55
 -10  -5  -9  -10.68    3.77
  10   5  11   -2.87    4.04
 -10  -5 -11    5.39    4.18
  10   5  13   21.94    5.72
 -10  -5 -13   12.89    5.38
 -10  -5 -15    5.06    6.63
  10   5  15    5.82    6.73
 -10  -5 -17    0.81    7.43
  10  -6 -22   10.57    6.08
 -10   6  22    5.79    4.91
 -10  -6  22   -1.63   11.91
  10   6 -22   -3.22   12.46
  10  -6 -20   -1.42    4.43
 -10   6  20    0.70    4.71
 -10  -6  20   15.98   12.08
  10   6 -20    0.96   15.91
 -10   6  18    9.66    5.54
  10  -6 -18   21.31    6.85
  10  -6 -18    6.47    5.87
 -10   6  18   29.29    6.40
 -10  -6  18   25.84   12.76
 -10   6  16    0.69    4.86
  10  -6 -16   13.94    5.52
  10   6 -16   22.64    7.85
 -10  -6  16    2.49    7.45
  10  -6 -16    4.42    4.22
 -10   6  16   10.43    4.68
 -10  -6  14   14.07    7.17
 -10   6  14   11.79    4.99
 -10   6  14   22.62    3.73
  10  -6 -14    9.38    3.25
 -10  -6  12    4.04    6.41
  10  -6 -12    2.53    3.02
 -10   6  12    7.24    2.95
  10  -6 -12   -4.76    3.03
 -10   6  12    4.43    3.29
 -10  -6  10  117.61    6.62
 -10   6  10   55.77    5.33
 -10   6   8   17.80    3.87
  10  -6  -8   20.09    4.03
 -10   6   8   11.60    2.25
  10  -6  -8    8.04    2.38
 -10  -6   8   12.91    3.63
  10   6  -8   24.93    3.72
  10  -6  -6   97.94    3.37
  10  -6  -6   99.58    5.90
 -10   6   4   24.88    1.97
 -10   6   4   25.26    3.41
  10  -6  -4   24.85    3.33
 -10  -6   4   16.25    1.66
 -10   6   2   39.65    4.27
  10   6  -2   46.08    2.83
  10  -6  -2   37.79    2.58
 -10   6   2   38.81    2.55
 -10  -6   2   48.90    2.97
  10  -6   0   25.55    3.05
 -10   6   0   24.02    2.42
 -10  -6  -2    2.69    2.20
  10   6   2    2.39    2.03
 -10   6  -2    1.57    2.60
  10  -6   2    4.12    3.07
  10   6   2    1.35    3.43
 -10  -6  -2    7.21    3.48
 -10  -6  -4    8.59    5.07
  10   6   4   -4.39    4.23
  10   6   4    3.42    2.16
 -10  -6  -4    5.00    2.70
  10  -6   4   12.46    5.79
 -10   6  -4    2.50    4.42
 -10   6  -6   41.22    6.72
  10  -6   6   20.43    6.95
 -10  -6  -8    6.90    3.19
  10   6   8    9.31    2.74
  10  -6   8  -15.58    9.99
 -10   6  -8   13.29    6.72
 -10  -6  -8   12.29    7.55
  10   6   8    9.48    8.00
 -10  -6 -10   18.37    3.72
  10   6  10   18.61    3.38
  10  -6  10    7.75   10.53
 -10   6 -10   15.97   14.48
 -10  -6 -10   22.06    9.52
 -10   6 -12   19.40   12.92
 -10  -6 -12    3.94    3.59
  10   6  12    5.58    3.17
 -10  -6 -14    1.95    4.31
  10   6  14    4.13    3.81
 -10  -6 -16   14.42    5.36
  10   6  16   17.96    5.72
  10   7 -17    4.38    6.67
 -10  -7  17   -3.60    6.52
  10   7 -15    2.33    6.23
 -10  -7  15  -12.24    5.30
 -10   7  15    2.49    3.79
  10  -7 -15    8.12    4.02
 -10   7  15   -0.17    2.45
  10  -7 -15   -0.36    3.05
 -10  -7  13   -1.75    5.44
  10   7 -13    3.88    4.42
  10  -7 -13    3.74    2.70
 -10   7  13    2.07    2.45
 -10   7  13    8.93    3.68
  10  -7 -13    6.79    3.56
  10  -7 -11    4.79    3.19
 -10   7  11    3.86    2.97
  10   7 -11   13.57    3.34
 -10  -7  11   -0.70    3.69
  10  -7 -11    2.34    2.12
 -10   7  11    7.65    2.30
 -10   7   9    2.30    2.57
  10  -7  -9    5.62    2.75
 -10   7   9    4.94    1.91
  10  -7  -9    8.49    2.17
 -10  -7   9    5.20    3.11
  10   7  -9    3.92    2.58
  10  -7  -7    3.36    1.65
  10  -7  -7   10.28    2.65
 -10  -7   7    1.60    2.56
  10   7  -7   11.26    2.41
 -10  -7   5    5.23    1.34
  10   7  -5    0.22    1.14
 -10   7   5    2.33    2.06
  10  -7  -5    3.86    2.26
  10  -7  -5    5.45    1.74
 -10   7   5   -2.27    1.23
  10   7  -5    0.38    1.79
 -10  -7   5   -0.37    1.98
 -10   7   3    4.19    2.08
  10  -7  -3   -0.31    2.14
  10   7  -3    3.28    1.58
 -10  -7   3    5.34    1.43
 -10  -7   3    0.26    2.10
  10  -7  -3    3.85    1.76
  10   7  -3    1.51    1.56
 -10   7   3    2.79    1.33
 -10  -7   1    2.91    1.79
  10  -7  -1    5.86    2.74
 -10   7   1    5.39    2.61
 -10   7   1    3.44    1.71
  10  -7  -1    2.30    1.69
 -10  -7   1    3.87    1.83
  10   7  -1    0.86    1.45
 -10   7  -1   14.62    2.39
  10  -7   1    6.81    2.56
  10   7   1   10.73    2.98
 -10  -7  -1   15.83    3.20
 -10  -7  -1    5.84    1.98
  10   7   1   11.09    1.95
 -10  -7  -3   -2.93    1.82
  10   7   3   -1.06    1.46
 -10  -7  -3    4.16    3.22
  10   7   3   -1.21    2.66
 -10   7  -3    0.40    2.26
  10  -7   3    4.86    3.00
  10   7   5    3.61    2.06
 -10  -7  -5    4.59    2.38
 -10  -7  -5   10.08    3.99
  10   7   5    2.03    3.54
  10  -7   5   15.30    5.33
 -10   7  -5    2.60    3.70
  10  -7   7    1.84    5.76
  10   7   7    1.69    1.95
 -10  -7  -7    3.97    2.51
 -10  -7  -7    8.80    4.74
  10   7   7    6.50    5.25
 -10   7  -7   11.10    5.25
  10   7   9    4.39    2.47
 -10   7  -9    1.74    5.94
  10  -7   9    8.02    6.47
 -10  -7  -9   -2.47    5.75
  10   7   9    5.34    5.47
  11   0 -21    1.56   12.77
 -11   0  19    0.77   13.15
  11   0 -19   21.79   11.25
 -11   0  17   55.10   12.67
  11   0 -17   37.47   11.30
 -11   0  15   -4.75    9.18
  11   0 -15    3.58    8.38
 -11   0  13   12.83    7.53
  11   0 -13  -12.64    6.19
  11   0 -11    0.27    6.20
 -11   0  11   -8.68    6.13
  11   0  -9  329.81   10.10
 -11   0   9    9.32    5.06
  11   0  -7   39.64    3.76
 -11   0   7  397.55    7.82
 -11   0   5   -1.58    2.19
  11   0  -5    1.81    2.25
 -11   0   5   -6.34    4.96
  11   0  -5    0.06    4.80
 -11   0   3    5.55    1.29
  11   0  -3   16.70    1.18
 -11   0   1   10.27    2.14
  11   0  -1    4.51    2.14
  11  -1 -26   11.10   13.98
 -11   1  24  -19.88   12.01
  11  -1 -24    7.88   14.40
 -11   1  22  156.25   17.72
  11  -1 -22  119.63   15.29
  11  -1 -20   22.26   11.24
 -11   1  20   82.76   13.83
 -11   1  18  128.01   12.91
  11  -1 -18  196.74   13.95
  11   1 -16   -1.64   10.91
 -11  -1  16   17.45   11.63
  11  -1 -16   -4.06    6.96
 -11   1  16    9.00    8.34
 -11  -1  14  526.93   18.99
  11  -1 -14  624.34   16.78
  11   1 -14  515.03   18.19
  11  -1 -12   51.46    7.87
 -11   1  12   63.76    8.08
  11   1 -12   60.88    8.55
 -11  -1  12   66.51    9.28
  11  -1 -10 1014.91   18.39
 -11  -1  10  872.47   14.64
  11   1  -8 4586.86   27.67
 -11  -1   8 4307.45   29.04
  11  -1  -6   -2.43    2.64
 -11   1   6    4.28    2.84
 -11  -1   6    3.55    2.14
  11   1  -4    3.92    1.84
 -11   1   4    3.63    2.44
 -11  -1   4    4.41    2.22
  11   1  -4    5.24    2.00
 -11  -1   2  289.46    3.37
  11   1  -2  289.07    3.45
  11   1   0 2493.18   11.52
 -11  -1   0 2520.61   11.16
 -11  -1  -2  434.01    7.12
  11   1   2  499.41    7.65
 -11  -1  -4  403.82   10.16
  11  -2 -31   14.92   12.25
  11  -2 -29   71.44   16.66
 -11   2  29   29.28   14.12
  11  -2 -27   28.96   12.83
 -11   2  27   -3.59   12.26
 -11   2  25   54.00   14.46
  11  -2 -25   51.65   13.25
 -11   2  23   45.24   13.10
  11  -2 -23   23.82   11.35
 -11   2  21   85.31   12.81
  11  -2 -21   79.26   12.26
 -11   2  19  277.38   16.32
  11  -2 -19  343.41   16.64
  11  -2 -17  328.13   14.38
 -11   2  17  186.77   12.30
  11  -2 -15  718.35   19.92
 -11   2  15  521.38   17.27
 -11   2  13   22.10    6.73
  11  -2 -13   30.44    7.34
  11   2 -11  459.16   19.76
  11  -2 -11  378.62   13.03
 -11  -2   9  313.64    9.79
  11   2  -9  778.42   15.27
  11   2  -7 1830.45   15.11
  11   2  -7 2320.96   18.08
  11   2  -5   67.35    2.03
 -11  -2   5   73.65    2.14
  11  -2  -5   78.77    4.69
 -11   2   5   60.29    4.28
  11  -2  -3  616.14   11.93
 -11   2   3  758.46   13.47
  11  -2  -1 1113.49   12.96
 -11   2   1  679.68    7.74
 -11  -2  -1   46.73    3.30
  11   2   1   56.39    3.23
  11   2   3   41.68    4.00
 -11  -2  -3   22.35    3.90
 -11  -2  -5   54.63    5.61
  11   2   5  173.28    7.04
 -11  -2  -7  298.83   11.14
  11   2   7  446.48   12.14
 -11   3  32   20.15   13.65
  11  -3 -32  -13.69   10.06
 -11   3  30    2.69   10.66
  11  -3 -30    7.10   10.65
  11  -3 -28   19.71   10.56
 -11   3  28   -5.78   10.53
  11  -3 -26    5.73    9.32
 -11   3  26   -4.09   10.38
 -11   3  24    9.92   10.04
  11  -3 -24   16.12    8.98
 -11   3  22   41.15   10.86
  11  -3 -22   85.21   11.49
  11  -3 -20   63.13    9.88
 -11   3  20   54.29    9.83
  11  -3 -18   10.58    7.09
 -11   3  18   12.43    7.08
 -11   3  16   -5.98    6.20
  11  -3 -16    5.98    6.51
  11   3 -14  221.72   18.73
  11  -3 -14  181.37   13.06
 -11  -3  12  183.86   16.65
  11   3 -12  366.31   17.53
 -11  -3  10  -20.64    8.05
  11   3 -10    0.86    7.52
 -11  -3   8  241.29    8.31
  11   3  -8  291.11    8.20
  11   3  -6  166.19    2.97
 -11  -3   6  163.53    4.94
  11  -3  -6  151.49    3.62
  11  -3  -6  167.80    6.33
 -11   3   4   24.42    2.91
  11  -3  -4   26.05    1.49
  11   3  -4   33.89    2.69
 -11  -3   4   27.59    2.59
 -11   3   2   46.87    2.00
  11  -3  -2   48.48    2.28
  11  -3   0  193.97    6.38
 -11  -3   0  189.71    4.27
  11   3   0  225.62    4.55
  11  -3   2  418.48   14.47
 -11   3  -2  482.66   15.91
  11   3   4    5.88    3.33
 -11  -3  -4   13.68    3.82
 -11  -3  -6  123.78    5.50
  11   3   6  159.15    6.04
  11   3   8   83.65    7.46
 -11  -3  -8   60.45    6.99
 -11  -3 -10  231.18   12.08
  11   3  10  151.08   10.54
  11  -4 -29    8.67    9.45
 -11   4  29    5.79    8.75
 -11   4  27    1.05    7.99
  11  -4 -27    6.79    7.25
  11  -4 -25    8.40    7.47
 -11   4  25    0.90    7.22
  11  -4 -23   13.74    7.30
 -11   4  23   -2.30    6.73
 -11   4  21   44.19    8.27
  11  -4 -21   12.19    6.68
  11  -4 -19    3.05    6.64
 -11   4  19   10.24    6.79
  11   4 -17  254.61   20.96
 -11   4  17  142.81   11.30
  11   4 -15   37.55   18.64
 -11  -4  15   14.27   19.53
  11  -4 -15   15.29    7.55
 -11   4  15   28.82    8.63
 -11  -4  13    9.98    8.98
  11   4 -13   39.83   10.16
  11  -4 -13    5.53    5.24
 -11   4  13   16.35    6.05
  11  -4 -11   71.87    6.74
 -11   4  11   62.52    6.33
 -11   4  11   72.31    5.88
  11  -4 -11   76.82    5.67
 -11   4   9    7.87    3.36
  11  -4  -9   17.15    4.12
  11  -4  -9   14.24    3.18
 -11   4   9    8.18    2.78
  11  -4  -7   18.13    3.57
 -11   4   7   18.18    3.61
  11  -4  -7   19.02    2.37
 -11   4   5    9.45    1.73
  11   4  -5    6.72    2.38
 -11  -4   5    4.89    2.63
  11  -4  -5    6.73    2.71
 -11   4   5    6.23    2.58
  11  -4  -3   67.66    4.94
 -11   4   3   45.15    1.90
  11   4  -3   64.28    2.81
 -11  -4   3   60.01    3.18
 -11   4   1   68.46    3.02
  11  -4  -1   53.13    3.09
  11  -4   1   47.94    5.87
 -11  -4  -1   91.73    3.73
 -11   4  -3   63.14    7.93
  11  -4   3   84.49    9.88
  11  -4   5  113.46   14.11
 -11   4  -5  109.76   13.45
  11   4   7   67.36    5.03
 -11  -4  -7   73.17    5.28
 -11  -4  -9   13.94    5.26
  11   4   9    7.71    4.92
 -11  -4 -11   34.84    7.40
  11   4  11   64.14    7.80
 -11  -4 -13   20.33    8.17
  11   4  13   52.16    8.75
  11  -5 -26   -8.51    4.81
 -11   5  26    0.91    5.84
  11  -5 -24    9.51    5.76
 -11   5  24   -4.74    5.06
 -11   5  22    2.71    5.66
  11  -5 -22   15.42    6.27
  11  -5 -20   17.31    6.42
 -11   5  20    7.38    5.49
 -11  -5  20   17.39   13.57
  11   5 -20   16.39   15.07
 -11   5  18   20.43    6.67
  11  -5 -18   26.36    7.48
 -11  -5  18    9.25   13.39
  11   5 -18   54.64   19.54
 -11   5  16   12.22    6.40
  11  -5 -16   25.91    7.86
  11  -5 -14    9.80    5.60
 -11   5  14   15.30    5.95
 -11   5  14   36.01    6.44
  11  -5 -14   13.45    6.04
  11   5 -14   36.07    9.02
 -11  -5  14   27.13    9.49
  11  -5 -12   30.19    4.16
  11  -5 -12   38.00    5.86
 -11   5  12   38.73    6.03
  11  -5 -10    3.33    3.51
  11  -5 -10    2.52    3.24
 -11   5  10    8.11    3.02
  11   5 -10    1.10    4.81
 -11  -5  10   -0.20    5.16
 -11  -5   8   25.32    4.31
  11   5  -8   27.25    3.96
  11  -5  -6   47.95    2.75
  11  -5  -6   32.44    3.92
 -11  -5   6   47.09    4.04
  11   5  -6   43.29    3.60
 -11   5   6   41.26    4.18
 -11  -5   4  113.64    4.47
  11  -5  -4  118.19    5.68
  11  -5  -2   48.81    2.73
  11  -5  -2   39.93    4.91
 -11   5   2   45.52    5.17
  11  -5   0   13.80    3.01
 -11  -5   0   16.25    2.57
  11   5   0   19.77    2.55
 -11   5   0   25.53    3.08
  11   5   0   28.73    5.59
  11  -5   2  104.09    7.00
 -11   5  -2   70.61    5.54
  11  -5   4   18.82    7.49
 -11   5  -4   16.58    6.78
 -11  -5  -4    8.29    3.16
  11   5   4   12.67    2.83
 -11   5  -6   26.22   12.49
  11  -5   6  -16.85   14.85
 -11  -5  -6   23.57    3.93
  11   5   6   23.15    3.66
  11  -5   8   19.33   12.81
 -11   5  -8    2.18   12.25
 -11  -5  -8   -4.80    3.86
  11   5   8   -3.42    3.12
 -11  -5 -10   13.55    4.16
  11   5  10    6.43    3.78
  11   5  12   30.86    4.99
 -11  -5 -12   17.83    4.75
 -11  -5 -14   -4.31    5.97
  11   5  14    4.18    5.61
 -11  -5 -16   29.07    7.47
  11   5  16   55.82    8.21
  11  -6 -23    0.78    5.29
  11   6 -23   -5.05   12.34
 -11  -6  23   14.59   12.16
 -11   6  23    5.28    5.59
 -11  -6  21   22.60   11.23
  11   6 -21   26.34   16.12
 -11   6  21   -2.18    3.91
  11  -6 -21   19.80    6.35
  11   6 -19   30.99   13.46
 -11  -6  19   35.29   14.89
  11  -6 -19    4.19    6.82
 -11   6  19   36.07    6.88
  11  -6 -19   22.96    7.01
 -11  -6  17  -16.16    6.69
  11  -6 -17  -11.42    4.72
 -11  -6  15  -10.17    6.52
  11   6 -15   16.42    7.26
 -11   6  15   -1.77    3.58
  11  -6 -15    3.40    4.43
  11  -6 -15   -3.45    3.48
 -11   6  15    6.61    3.65
 -11  -6  13    4.62    6.68
  11   6 -13   14.88    6.80
 -11   6  13    0.98    2.62
  11  -6 -13   -2.08    2.95
 -11   6  13    0.93    3.54
  11  -6 -13   11.53    4.02
  11  -6 -11   12.19    3.66
 -11   6  11   12.04    3.43
 -11   6  11   12.59    2.99
  11  -6 -11   18.43    3.23
 -11  -6   9   34.75    4.20
  11  -6  -9   23.57    2.81
  11  -6  -7   11.20    2.10
  11  -6  -7   12.52    2.97
 -11   6   7    7.89    2.80
 -11   6   7   14.20    2.18
 -11  -6   7   16.12    3.46
 -11  -6   5   11.27    1.31
 -11   6   5   13.35    3.05
  11   6  -5    5.24    1.29
  11  -6  -5    5.61    2.53
  11   6  -5    6.30    2.21
 -11  -6   5   12.11    2.57
 -11  -6   3    1.34    1.42
  11  -6  -3   -0.59    2.27
 -11   6   3    4.26    2.47
  11   6  -3    0.89    1.74
  11  -6  -3    2.27    1.79
 -11  -6   3    7.83    2.44
  11   6  -3   -0.47    1.62
 -11   6   3   -0.19    1.29
  11  -6  -1    0.09    1.99
 -11   6   1    1.76    1.74
  11   6  -1   -0.70    1.66
 -11  -6   1    1.47    1.81
 -11   6   1    1.27    2.54
  11  -6  -1    2.54    2.17
  11   6  -1    6.34    3.05
 -11  -6  -1    4.78    2.09
  11   6   1    6.15    1.88
  11   6   1   12.35    3.68
 -11  -6  -1   12.53    3.60
  11  -6   1    8.08    2.79
 -11   6  -1    7.15    2.52
  11   6   3   24.41    2.87
 -11  -6  -3   20.63    2.83
  11   6   3   33.04    6.07
  11  -6   3   22.44    5.04
 -11   6  -3    8.83    3.62
  11   6   5    0.52    6.62
 -11  -6  -5   -1.90    5.95
  11  -6   5    0.76    5.54
 -11   6  -5   10.72    5.53
 -11  -6  -7    1.68    2.60
  11   6   7    3.07    2.59
 -11   6  -7   -0.30    6.20
  11  -6   7    0.37    8.27
 -11  -6  -7   -5.00    7.73
 -11   6  -9  -13.95   12.72
  11  -6   9    7.15   11.52
 -11   6 -11    0.56   10.48
  11   6  11    1.00    3.09
 -11  -6 -11    4.70    3.52
  11   6  13   -5.01    2.98
 -11  -6 -13   -0.66    3.66
 -11  -6 -15    1.10    4.49
  11   6  15   13.42    4.73
  11   7 -16    1.58    5.64
 -11  -7  16    2.03    6.65
  11  -7 -16    8.66    4.33
 -11   7  16   -0.65    3.44
 -11   7  16   -2.33    2.54
  11  -7 -16    0.90    2.92
 -11  -7  14   -2.18    5.71
  11   7 -14    8.77    5.55
  11  -7 -14    2.00    2.81
 -11   7  14    5.50    2.65
 -11   7  14    2.61    3.13
  11  -7 -14    2.06    3.82
  11  -7 -12    6.95    2.46
  11  -7 -12    3.61    2.78
 -11   7  12    8.92    2.97
 -11   7  10   12.91    3.35
  11  -7 -10   18.75    3.85
 -11   7  10    8.81    1.91
  11  -7 -10    4.38    2.04
 -11  -7  10   10.74    3.26
  11   7 -10   18.21    3.22
  11  -7  -8    5.01    1.83
 -11   7   8    6.63    2.68
  11  -7  -8    4.14    2.46
 -11   7   8    7.31    1.69
 -11  -7   8    1.74    2.91
  11   7  -8    8.62    2.53
  11  -7  -6    8.50    1.65
  11  -7  -6   11.83    3.07
 -11   7   6    7.15    2.40
  11   7  -6    8.76    1.47
 -11   7   4   40.51    3.99
  11  -7  -4   31.12    3.38
  11  -7  -4   35.85    2.31
 -11  -7   2    3.85    1.64
 -11   7   2    5.40    1.56
  11  -7  -2    4.76    1.81
 -11  -7   2   -0.76    1.63
  11   7  -2   -0.44    1.40
  11  -7  -2    3.02    2.73
 -11   7   2    5.14    2.38
  11   7  -2   -0.18    1.55
  11   7   0   37.12    2.59
 -11  -7   0   32.49    2.75
  11   7   0   32.94    3.73
 -11  -7   0   43.44    4.16
  11  -7   0   27.85    2.93
 -11   7   0   32.67    2.51
  11   7   2    4.09    1.61
 -11  -7  -2    4.21    2.01
 -11  -7  -2    5.91    3.28
  11   7   2    6.46    2.75
 -11   7  -2    9.11    2.46
  11  -7   2    0.94    2.52
 -11  -7  -4   15.32    2.50
  11   7   4   17.99    2.47
 -11  -7  -4   22.87    4.53
  11   7   4   23.61    4.72
  11  -7   4    1.34    4.19
 -11   7  -4    9.29    3.43
 -11  -7  -6    5.38    2.53
  11   7   6    6.55    2.16
  11   7   6   -0.52    5.09
 -11  -7  -6    7.57    4.64
 -11   7  -6    6.77    5.11
  11  -7   6   15.10    5.56
 -11  -7  -8    3.90    2.55
  11   7   8    1.72    2.15
 -11  -7  -8   11.21    6.10
  11   7   8    5.74    6.28
  11  -7   8    0.35    6.42
 -11   7  -8    6.13    5.65
  12   0 -22  152.68   17.35
 -12   0  22  126.00   16.93
  12   0 -20   48.53   12.04
 -12   0  20   93.19   15.35
  12   0 -18  211.67   14.90
 -12   0  18  313.29   17.86
  12   0 -16 1847.48   31.26
 -12   0  16 1790.84   32.02
  12   0 -14  127.54    9.31
 -12   0  14   56.02    7.87
  12   0 -12  718.05   16.19
 -12   0  12  673.99   15.78
  12   0 -10  288.96   10.04
 -12   0  10  218.16    9.33
  12   0  -8 1318.73   14.58
 -12   0   8 1304.61   15.09
  12   0  -6 2188.35   15.86
 -12   0   6 2461.10   16.98
  12   0  -4  220.33    6.09
 -12   0   4  276.79    7.10
 -12   0   2 7607.62   13.66
  12   0  -2 7718.22   13.58
 -12   0   0 1739.18   10.86
  12   0   0 2042.40   12.14
 -12   1  27   11.79   13.13
  12  -1 -27  -24.77   11.75
 -12   1  25   12.73   14.19
  12  -1 -25   30.26   13.46
 -12   1  23  -13.34   12.17
  12  -1 -23   15.17   11.77
  12  -1 -21  141.26   14.43
 -12   1  21   88.40   13.83
  12  -1 -19   45.62    9.64
 -12   1  19    3.21    9.32
  12  -1 -17   11.77    7.38
 -12   1  17   38.82    8.34
 -12  -1  17   35.45   12.38
  12   1 -17   44.64   11.53
  12  -1 -15  489.88   15.64
  12   1 -15  546.86   18.14
  12   1 -13  773.50   17.91
 -12  -1  13  792.98   18.93
  12  -1 -13  680.75   17.10
  12   1 -11  138.65    7.48
 -12  -1  11  132.82    7.82
 -12   1  11  123.02    8.45
  12  -1 -11  107.63    8.29
  12   1  -9   -8.84   13.71
 -12  -1   9   -7.09   13.33
  12   1  -7  427.45    7.31
 -12   1   7  384.00    9.06
  12  -1  -7  414.26    9.16
  12   1  -5  464.61    5.38
  12  -1  -5  467.48    8.19
 -12   1   5  443.54    8.08
 -12  -1   3  497.92    4.25
  12   1  -3  496.50    4.28
 -12  -1   1  748.40    6.45
  12   1  -1  404.17    5.01
 -12  -1  -1  419.03    6.47
  12   1   1  395.48    6.07
  12   1   3  701.55   11.43
 -12  -1  -3  640.84   10.53
  12  -2 -34   34.52   12.17
  12  -2 -32   20.95   12.07
  12  -2 -30   46.63   14.86
 -12   2  30   -1.29   12.01
  12  -2 -28    6.41   10.58
 -12   2  28  -26.47   10.07
  12  -2 -26    1.95   10.76
 -12   2  26    6.20   11.32
 -12   2  24  154.46   16.36
  12  -2 -24  128.16   15.09
 -12   2  22   59.18   12.55
  12  -2 -22   23.36   10.33
  12  -2 -20   13.66    8.12
 -12   2  20   -7.01    8.04
  12  -2 -18   71.51    9.20
 -12   2  18   68.82    9.23
  12  -2 -16  100.55   10.10
 -12   2  16   66.22    8.93
 -12   2  14  125.01    9.42
  12  -2 -14  147.19   10.31
 -12  -2  12  -21.27   13.11
  12   2 -12    9.17   15.15
 -12  -2  12   13.83    9.08
  12   2 -12    6.60    6.82
 -12  -2  10  655.25   17.56
  12   2 -10  916.56   17.83
  12  -2  -8   21.54    4.24
 -12   2   8   13.85    3.75
 -12  -2   8   13.85    3.94
  12   2  -8   -0.13    3.49
 -12  -2   6    7.77    1.76
 -12   2   6    9.95    2.87
  12  -2  -6   13.16    3.03
  12   2  -6    7.48    1.61
 -12  -2   6   16.10    3.48
  12  -2  -4  106.85    5.34
 -12   2   4  126.04    5.70
  12   2  -2 1275.28    7.97
  12  -2  -2 1428.65    8.30
 -12  -2   0   97.27    3.54
  12   2   0   42.25    2.88
 -12  -2  -2   58.54    4.15
  12   2   2   40.91    3.84
 -12  -2  -4  462.33    8.00
  12   2   4  460.70    8.49
 -12  -2  -6  168.96    8.45
  12   2   6  158.84    8.16
 -12   3  31    5.26   10.68
  12  -3 -31    9.76   10.71
  12  -3 -29    8.70    9.67
 -12   3  29    5.95    9.67
  12  -3 -27   12.72    9.59
 -12   3  27    5.17    9.19
 -12   3  25  -11.20    7.92
  12  -3 -25    3.44    8.52
  12  -3 -23   79.16   11.17
 -12   3  23   47.07   10.70
  12  -3 -21    6.75    7.08
 -12   3  21   10.95    8.15
  12  -3 -19  175.29   12.54
 -12   3  19  122.49   10.59
  12  -3 -17   37.62    8.03
 -12   3  17   28.22    7.66
  12   3 -15   17.90   16.42
  12  -3 -15   18.90    8.42
 -12   3  15    4.05    6.36
  12   3 -13  455.47   22.95
 -12   3  13  257.43   12.26
 -12  -3  11  928.99   17.58
  12   3 -11 1440.91   20.73
 -12   3   9    6.00    3.33
  12  -3  -9    0.53    3.26
 -12   3   9    0.46    4.94
 -12  -3   9    6.19    6.27
  12   3  -9    0.19    6.28
  12   3  -7  101.25    3.11
 -12  -3   7   88.86    4.45
  12  -3  -7  101.20    3.50
 -12   3   7  102.73    5.68
  12  -3  -7   78.37    5.03
  12  -3  -5   31.44    3.32
  12   3  -5   28.71    2.55
 -12  -3   5   28.07    2.85
  12  -3  -3   85.34    5.92
  12  -3  -3  124.58    2.48
  12  -3  -1   56.70    4.09
 -12   3   1   28.71    2.94
  12  -3   1  272.07   14.38
 -12   3  -1  206.95   10.98
  12   3   3  318.29    6.47
 -12  -3  -3  131.98    4.66
  12   3   5   24.22    3.69
 -12  -3  -5   55.03    4.67
 -12  -3  -7  159.39    7.08
  12   3   7  319.00    8.86
 -12  -3  -9  327.66   11.87
  12   3   9  490.00   13.53
  12  -4 -30    4.46    9.33
 -12   4  30    8.29    8.79
  12  -4 -28   12.70    8.63
 -12   4  28   -2.14    8.02
  12  -4 -26   25.31    8.39
  12  -4 -24   -2.21    5.99
 -12   4  24    5.52    7.48
  12  -4 -22   56.18    8.61
 -12   4  22   43.07    8.46
 -12   4  20    9.40    6.30
  12  -4 -20   29.09    7.97
  12   4 -18  102.60   18.87
 -12  -4  18    9.54   15.93
 -12   4  18   36.74    7.80
  12  -4 -18  100.54   10.15
 -12  -4  16   31.49   16.78
  12  -4 -16   15.42    7.56
 -12   4  16   16.69    7.79
 -12  -4  14   34.29   12.86
  12   4 -14   50.35   10.45
  12  -4 -14   33.37    7.04
 -12   4  14   21.87    6.17
  12  -4 -12  241.36   10.92
  12   4 -12  404.62   12.97
  12  -4 -10    1.50    3.49
 -12   4  10   18.00    4.00
 -12  -4  10   13.64    6.86
  12   4 -10   18.15    6.21
  12  -4 -10    4.59    3.31
 -12   4  10   19.73    3.93
  12  -4  -8   39.23    4.57
 -12   4   8   29.23    3.03
 -12  -4   8   19.65    3.90
  12   4  -8   38.07    4.15
  12  -4  -6  228.32    4.25
 -12   4   6  258.73    4.39
  12  -4  -6  278.75    8.60
 -12   4   6  234.57    7.90
 -12  -4   6  232.62    5.91
  12  -4  -4   42.27    4.14
 -12   4   4   41.18    3.77
 -12   4   2   11.84    1.66
  12  -4  -2    5.21    1.93
 -12   4   0   78.43    4.11
  12  -4   0   78.61    4.80
 -12  -4  -2  588.76    8.33
  12   4   2  606.60    8.35
  12  -4   4   64.46   12.35
 -12   4  -4   45.43   13.71
 -12  -4  -6   15.98    4.51
  12   4   6   19.86    4.06
 -12  -4  -8  115.46    5.85
  12   4   8  115.61    6.11
  12   4  10   69.21    7.08
 -12  -4 -10   48.38    6.40
 -12  -4 -12   23.07    7.82
  12   4  12   18.35    8.07
 -12  -4 -14   16.80    8.34
 -12   5  27   -9.29    5.42
  12  -5 -27   17.35    6.66
  12  -5 -25   11.26    6.05
 -12   5  25   -3.24    4.36
 -12   5  23   -3.50    4.60
  12  -5 -23    2.92    5.37
  12   5 -21  -18.24   13.91
 -12   5  21   -4.17    4.92
  12  -5 -21    6.19    5.92
 -12  -5  19   28.97   12.97
  12   5 -19   -2.39   16.03
 -12   5  19    4.52    5.55
  12  -5 -19    8.48    5.80
 -12  -5  17   -6.24   14.90
  12   5 -17   -2.84   12.74
 -12  -5  15   -4.45    8.83
  12   5 -15   11.74    8.41
 -12   5  15    6.98    6.38
  12  -5 -15    1.85    6.33
  12  -5 -15   20.76    6.06
 -12   5  15   22.19    6.03
 -12   5  13   13.72    4.69
  12   5 -13   13.88    7.75
 -12  -5  13    1.78    7.26
  12  -5 -13   11.64    4.39
 -12   5  13    0.43    3.37
  12  -5 -13   13.05    4.58
 -12   5  11   21.15    4.21
 -12  -5  11    7.98    6.41
  12   5 -11   17.66    5.71
 -12   5  11    6.90    3.16
  12  -5 -11    6.19    3.42
  12  -5  -9    0.34    3.22
 -12   5   9    3.97    3.64
  12  -5  -9   -0.77    2.66
 -12   5   9    8.39    2.78
  12   5  -9   13.87    3.91
 -12  -5   9    3.51    3.63
 -12  -5   7   12.20    3.70
  12   5  -7   20.22    3.49
  12  -5  -7   18.77    3.65
 -12   5   7   21.54    2.37
 -12  -5   5   15.71    2.97
 -12   5   5   11.14    3.09
 -12  -5   5    8.58    1.08
  12  -5  -5    5.73    2.86
  12   5  -3    3.88    2.33
  12   5  -3    4.26    2.23
  12  -5  -3    4.00    2.02
 -12   5   3    2.78    1.69
 -12  -5   3    6.99    2.56
 -12   5   3   13.40    3.64
  12  -5  -3    5.31    3.40
  12   5  -1   17.00    2.54
 -12  -5   1   18.46    2.59
  12   5  -1   22.68    5.61
 -12  -5   1   25.53    4.90
 -12   5   1   17.12    2.67
  12  -5  -1   14.49    2.97
  12   5   1    3.73    2.50
 -12  -5  -1    5.27    2.57
 -12  -5  -1    6.84    7.22
  12  -5   1   -2.77    4.02
 -12   5  -1    3.65    3.41
  12   5   3    6.35    2.91
 -12  -5  -3    7.12    3.15
  12  -5   3   21.67    6.97
 -12   5  -3    2.31    5.49
 -12  -5  -5    4.76    3.09
  12   5   5    6.30    3.02
  12  -5   5   14.42   11.85
 -12   5  -5   10.60    7.66
  12  -5   7   16.56   12.37
 -12   5  -7   25.32   11.75
  12   5   9   30.81    4.08
 -12  -5  -9   45.30    4.67
  12   5  11   35.32    4.85
 -12  -5 -11   35.14    5.06
 -12  -5 -13   14.80    5.20
  12   5  13    4.07    5.22
 -12  -5 -15    6.80    6.53
  12   5  15   14.61    6.67
 -12  -5 -17   11.23    7.38
 -12   6  22    1.50    4.25
  12  -6 -22    5.30    5.30
 -12  -6  22    9.17   11.23
  12   6 -22   41.17   15.15
 -12   6  20   15.27    5.42
  12  -6 -20   30.14    7.05
 -12  -6  20    3.69   14.47
  12  -6 -18    6.37    4.77
 -12   6  18    4.67    5.67
  12  -6 -18   10.38    6.32
 -12   6  18   12.97    5.75
  12   6 -18   29.29    8.61
 -12  -6  18    9.29   10.00
  12  -6 -16   10.21    4.91
 -12   6  16    7.39    4.77
 -12  -6  16   11.23    7.45
  12  -6 -16    6.45    3.93
 -12   6  16   12.79    4.70
  12  -6 -14    8.18    3.22
 -12   6  14   11.85    3.29
 -12   6  14    0.49    3.42
  12  -6 -14    8.78    4.02
  12  -6 -12   30.31    3.64
 -12   6  12    7.12    3.21
  12  -6 -10    5.38    3.56
 -12   6  10    9.35    3.35
  12  -6 -10   11.09    2.48
  12   6 -10   20.77    3.61
 -12  -6  10   21.49    3.87
  12  -6  -8   51.89    3.08
 -12   6   8   68.04    3.24
 -12   6   8   68.76    5.51
 -12   6   6    0.84    1.37
 -12   6   6   -1.69    1.89
  12  -6  -6    3.77    2.61
 -12  -6   6    6.54    2.60
 -12  -6   4   18.84    2.59
  12  -6  -4   20.06    1.88
 -12   6   4   19.98    1.70
  12  -6  -4   18.99    3.21
 -12  -6   4   15.83    1.69
 -12   6   4    7.79    2.26
 -12  -6   2    2.70    2.00
  12  -6  -2    1.21    1.65
 -12   6   2    2.62    1.68
  12   6  -2    4.02    1.79
  12   6  -2    1.34    2.12
 -12   6   2    1.00    2.54
  12   6   0   48.43    2.88
 -12  -6   0   36.19    2.85
  12  -6   0   23.34    2.99
 -12   6   0   26.91    2.77
 -12  -6   0   48.92    4.57
  12   6   0   42.64    4.38
  12  -6   2   46.82    4.46
 -12   6  -2   40.68    3.56
  12   6   4   21.05    2.71
 -12  -6  -4   12.42    2.72
  12   6   4   24.08    7.44
 -12   6  -4   21.09    5.19
  12  -6   4    8.27    5.34
 -12   6  -6   16.16    6.39
  12  -6   6    4.30    5.95
 -12  -6  -6   11.35    8.30
 -12  -6  -6   14.94    2.94
 -12   6  -8   -9.27    9.60
  12  -6   8    9.77   13.32
 -12  -6 -10    1.18    3.59
  12   6  10   -0.20    2.82
  12  -6  10    5.64   11.29
 -12   6 -10  -19.93    9.66
 -12  -6 -12    2.56    3.14
  12   6  12    3.02    3.17
  12   6  14    3.46    3.84
 -12  -6 -14   -7.78    3.68
 -12  -7  15    0.39    6.25
  12   7 -15    6.06    5.54
 -12   7  15    3.31    2.52
  12  -7 -15    2.78    3.13
  12  -7 -15    1.62    3.37
 -12   7  15    4.89    3.17
 -12  -7  13    2.13    4.69
  12   7 -13   11.78    3.90
  12  -7 -13    0.91    2.41
 -12   7  13    2.74    2.29
 -12   7  13    2.37    2.84
  12  -7 -13    5.03    2.96
  12  -7 -11   -1.26    2.45
 -12   7  11    0.82    2.49
  12   7 -11    0.57    2.55
 -12  -7  11    4.47    3.29
 -12   7  11    1.97    1.86
  12  -7 -11    4.74    2.02
 -12   7   9    1.20    2.31
  12  -7  -9    2.57    2.41
 -12   7   9    0.63    1.60
  12  -7  -9    2.92    2.03
 -12  -7   9   -1.92    2.56
  12   7  -9    4.42    2.54
 -12   7   7    3.44    1.43
  12  -7  -7    1.83    1.53
 -12   7   7    2.27    2.15
  12  -7  -7    5.12    2.33
  12   7  -7    1.93    1.37
  12   7  -7    2.09    1.84
 -12  -7   7    0.45    2.35
  12   7  -5    5.72    1.98
 -12  -7   5    4.71    2.12
  12  -7  -5    3.98    1.51
  12  -7  -5    8.14    2.48
 -12  -7   5    4.30    1.07
  12   7  -5    6.29    1.30
 -12   7   5    9.51    2.68
 -12   7   3   10.09    2.69
  12  -7  -3   20.08    3.23
  12   7  -3   14.87    2.25
  12  -7  -3   14.13    2.04
  12  -7  -1    2.21    1.92
 -12   7   1    7.23    1.71
 -12  -7   1    3.38    1.85
  12   7  -1    7.93    1.79
  12  -7  -1    4.64    2.09
 -12   7   1    4.07    2.67
  12   7  -1   13.08    2.97
 -12  -7   1    6.09    2.67
 -12  -7  -1   12.09    2.26
 -12  -7  -1   10.80    3.21
  12   7   1    7.42    2.66
 -12   7  -1    2.58    2.20
  12  -7   1    6.92    2.37
  12   7   3    5.72    1.95
 -12  -7  -3   10.18    2.27
 -12  -7  -3   12.13    3.96
  12   7   3   14.64    4.39
  12  -7   3   12.29    3.53
 -12   7  -3    3.05    2.48
  12   7   5   -0.15    1.81
 -12  -7  -5    6.72    2.47
  12   7   5    6.52    4.78
 -12  -7  -5    0.46    4.58
  12  -7   5    7.97    5.30
 -12   7  -5    2.93    4.22
 -12  -7  -7    4.39    2.64
  12   7   7    2.78    1.93
  12   7   7    1.93    5.75
 -12  -7  -7    6.44    5.97
 -12   7  -7    0.29    4.69
  12  -7   7    1.96    5.99
  13   0 -25  -10.10   12.25
 -13   0  23   12.72   14.25
  13   0 -23   29.10   14.41
 -13   0  21   20.89   13.22
  13   0 -21   16.67   11.04
  13   0 -19   31.83   10.21
 -13   0  19   15.83   10.35
  13   0 -17    4.33    7.44
 -13   0  17    7.66    8.22
 -13   0  15   -5.29    6.20
  13   0 -15   49.01    7.52
 -13   0  13   -5.14    6.03
  13   0 -13   -4.11    6.33
  13   0 -11  424.03   12.89
 -13   0  11 1142.79   20.77
 -13   0   9    2.67    3.90
  13   0  -9   25.59    4.34
 -13   0   7   -0.44    9.57
  13   0  -7   -4.15   10.11
  13   0  -7    0.54    2.68
 -13   0   7    0.82    2.64
 -13   0   5    2.43    2.41
 -13   0   5    2.43    3.18
  13   0  -5    3.71    2.71
  13   0  -3   13.52    1.34
 -13   0   3   38.62    1.53
  13   0  -1   15.33    2.63
 -13   0   1    5.13    2.51
  13  -1 -30   26.48   13.08
  13  -1 -28   -9.13   11.52
 -13   1  28   22.75   13.31
  13  -1 -26   14.59   12.57
 -13   1  26   48.17   15.98
 -13   1  24  102.80   16.30
  13  -1 -24  119.92   15.43
 -13   1  22   17.07   11.19
  13  -1 -22   54.45   12.11
  13   1 -20  -18.62   10.27
  13  -1 -20   -4.88    8.05
 -13   1  20   11.85   10.20
  13   1 -18  404.87   18.92
 -13  -1  18  396.31   20.38
  13  -1 -18  354.91   15.63
 -13   1  18  303.64   14.62
  13  -1 -16   12.36    6.55
 -13   1  16    2.83    5.96
  13   1 -16    9.81    8.32
 -13  -1  16   27.28   10.30
  13  -1 -14   26.50    7.09
 -13   1  14   26.63    6.93
  13   1 -14   17.59    6.62
 -13  -1  14    9.97    7.66
 -13  -1  12   50.59    6.11
  13   1 -12   36.59    5.80
 -13   1  12   59.89    7.06
  13  -1 -10  518.93   12.42
 -13  -1  10  524.82   12.45
  13   1 -10  620.79   13.79
 -13   1  10  505.81   12.21
  13  -1  -8  202.45    7.39
 -13   1   8  186.47    6.94
 -13  -1   8  174.08    5.76
  13   1  -8  210.21    5.79
 -13  -1   6  111.95    3.76
 -13  -1   6   88.94    4.40
 -13  -1   4   31.09    2.26
 -13   1   4   38.08    2.11
 -13  -1   2  130.93    2.87
  13   1  -2  158.25    3.08
  13   1   0  836.98    7.81
 -13  -1   0  908.73    7.67
 -13  -1  -2  478.62    7.78
  13   1   2  534.01    8.31
 -13  -1  -4 1101.02   14.89
  13  -2 -33   -2.75   11.91
 -13   2  33    9.54   11.65
 -13   2  31    4.07   11.90
  13  -2 -31    8.75   12.32
 -13   2  29    1.21   10.98
  13  -2 -29   17.59   11.05
  13  -2 -27    8.96   10.20
 -13   2  27    2.11   10.57
  13  -2 -25    7.78   10.66
 -13   2  25    0.92   10.57
 -13   2  23  154.50   15.50
  13  -2 -23  124.16   13.46
  13  -2 -21   14.22    8.41
 -13   2  21   -1.94    8.22
  13  -2 -19   31.91    7.93
 -13   2  19   20.73    7.79
  13  -2 -17  164.75   11.54
 -13   2  17   99.75   10.08
 -13   2  15   25.50    7.31
  13   2 -15   34.12    9.77
 -13  -2  15   23.16   10.00
  13  -2 -13  472.81   15.54
 -13   2  13  327.32   12.61
 -13  -2  13  325.07   13.56
  13   2 -13  297.10   19.43
 -13   2  11   72.91    6.36
  13  -2 -11   82.21    6.86
  13   2 -11   97.79   15.69
  13   2 -11   80.13    5.90
 -13   2   9    6.36    3.48
  13  -2  -9    4.77    3.77
 -13  -2   9   21.68    7.34
 -13  -2   9    8.48    3.59
  13  -2  -7   20.09    3.44
 -13  -2   7   27.86    2.22
 -13   2   7   20.59    3.53
  13   2  -7   28.45    4.14
  13  -2  -5  238.85    2.87
 -13   2   5  218.46    2.80
 -13  -2   5  233.47    4.53
  13   2  -5  215.43    4.15
  13   2  -3  512.01    5.18
 -13  -2   3  584.06    5.66
 -13  -2   1   22.93    2.44
  13   2  -1   97.35    3.13
 -13  -2  -1   44.15    3.15
  13   2   1   61.45    3.28
  13   2   3   49.82    4.26
 -13  -2  -3  130.51    5.14
  13   2   5   49.09    5.80
 -13  -2  -5   56.52    5.41
 -13  -2  -7 1016.64   17.32
  13   2   7 1333.85   18.34
 -13   3  32    1.32    9.72
  13  -3 -32    1.23    8.45
  13  -3 -30   19.74    9.43
 -13   3  30   13.35    9.93
  13  -3 -28   -6.01    7.01
 -13   3  28   -1.06    8.59
  13  -3 -26   21.75    9.21
 -13   3  26    3.82    8.86
  13  -3 -24   19.25    8.51
 -13   3  24    3.19    9.16
 -13   3  22   11.42    7.86
  13  -3 -22   28.34    8.50
 -13   3  20    6.77    6.86
  13  -3 -20   -8.15    6.56
  13  -3 -18  170.61   12.04
 -13   3  18   94.11    9.70
  13  -3 -16  693.27   22.48
  13   3 -16  577.53   25.59
 -13   3  14   21.75    6.39
 -13  -3  14   31.93   16.43
 -13   3  12   58.88    6.36
 -13  -3  12   49.14    9.15
  13  -3 -10   10.01    3.62
 -13   3  10   10.82    3.53
 -13  -3  10   19.39    6.20
  13   3 -10   27.99    5.51
 -13  -3  10   20.17    7.29
  13   3 -10   14.83    7.02
 -13   3   8   11.50    3.59
 -13  -3   8   -1.64    4.37
  13   3  -8   11.15    4.13
  13  -3  -8    9.31    3.38
 -13   3   8    9.08    3.27
  13  -3  -8   11.66    3.19
 -13   3   6  159.69    6.31
  13   3  -6  146.25    2.29
  13  -3  -6  121.34    5.76
 -13  -3   6  156.21    2.57
 -13   3   6  141.38    3.16
  13  -3  -6  149.27    3.01
 -13  -3   6  136.82    4.49
  13  -3  -4   83.81    5.19
 -13   3   4   90.32    1.84
 -13   3   2    4.93    1.88
  13  -3  -2   11.69    2.08
 -13   3   0   76.54    5.86
  13  -3   0   68.62    7.50
 -13  -3  -2   12.62    2.72
  13   3   2   14.35    2.80
 -13  -3  -4  771.82   10.43
  13   3   4  502.14    8.64
  13   3   6   25.20    4.42
 -13  -3  -6   24.07    4.29
  13   3   8  387.05   11.50
 -13  -3  -8  394.65   10.82
  13   3  10   91.39    9.69
 -13  -3 -10   39.97    9.39
  13  -4 -29   -2.99    6.77
 -13   4  29    4.41    7.48
  13  -4 -27   56.07    9.99
 -13   4  27   -0.95    6.38
  13  -4 -25   -4.55    5.52
 -13   4  25    6.50    6.44
  13  -4 -23   32.35    7.53
 -13   4  23   21.09    7.55
 -13   4  21   -0.65    6.18
  13  -4 -21   14.45    6.54
  13  -4 -19   40.21    8.46
 -13   4  19   16.41    7.01
  13   4 -19   82.08   20.02
 -13   4  17   97.14   10.60
 -13  -4  17   11.59   15.27
 -13  -4  15   28.62   15.63
 -13   4  15   12.78    6.76
 -13  -4  13   21.21    8.91
  13  -4 -13   42.98    6.40
 -13   4  13   37.65    6.02
  13  -4 -11   25.75    4.88
 -13   4  11   78.59    6.17
 -13   4   9   12.60    4.06
  13  -4  -9   26.46    4.78
 -13   4   9   13.19    2.89
  13  -4  -9   19.16    3.27
  13   4  -9   19.19    4.26
 -13  -4   9   13.14    4.80
  13   4  -7   54.40    3.89
  13  -4  -7   28.31    3.72
  13  -4  -7   50.63    2.60
 -13   4   7   60.58    2.72
 -13   4   7   59.41    4.67
 -13  -4   7   62.13    4.45
 -13   4   5    4.25    2.56
 -13   4   5   10.83    1.53
  13   4  -5   17.37    2.53
 -13  -4   5   15.80    2.69
  13  -4  -3   21.15    3.95
 -13   4   3   13.70    1.68
 -13  -4   3   23.63    2.36
  13  -4  -3   18.81    1.81
 -13  -4   1   18.63    2.41
  13   4  -1   20.33    2.35
 -13   4   1   21.61    2.64
  13   4   1   36.14    3.16
 -13  -4  -1   31.54    3.11
 -13   4  -1   50.49    5.53
  13  -4   1   57.06    6.65
 -13  -4  -3   14.37    3.25
 -13   4  -3   33.95   12.60
  13  -4   3   24.56   13.30
  13   4   3   33.34    3.35
  13   4   5  415.35    8.62
 -13  -4  -5  391.70    8.32
  13   4   7    7.72    4.10
 -13  -4  -7   13.89    4.58
 -13  -4  -9    6.54    4.88
  13   4   9   17.46    5.12
 -13  -4 -11  108.54    8.26
  13   4  11  110.19    8.45
 -13  -4 -13   23.77    8.09
  13   4  13   33.41    8.07
 -13   5  26   -6.64    4.98
  13  -5 -26   22.28    6.47
 -13   5  24   10.87    5.18
  13  -5 -24   27.19    7.09
 -13   5  22    1.44    5.44
  13  -5 -22    2.85    5.42
  13   5 -22   -1.63   14.66
 -13   5  20   -3.35    4.93
 -13  -5  20  -21.43   10.71
  13   5 -20    2.23   16.09
  13  -5 -18   27.63    7.08
 -13   5  18   22.53    7.92
 -13  -5  18    4.77   16.14
  13   5 -18   13.36   14.27
  13  -5 -16    9.80    5.41
 -13   5  16    2.35    4.94
  13  -5 -16   19.10    7.04
  13   5 -16   17.70    9.17
 -13  -5  16    7.75    8.72
  13   5 -14   16.68    7.61
 -13  -5  14   17.76    8.10
  13  -5 -14    1.74    5.17
  13  -5 -14   14.16    4.52
 -13   5  14    0.92    4.20
 -13   5  12   40.01    5.15
  13  -5 -12   32.42    4.72
 -13  -5  12   14.09    7.12
  13   5 -12   31.78    7.12
  13  -5 -12    8.63    3.52
 -13   5  12   36.81    4.13
 -13   5  10   -0.69    3.25
  13  -5 -10   -3.19    3.01
 -13  -5  10   -3.26    4.49
  13   5 -10    4.45    3.89
  13  -5 -10   -0.21    3.01
  13  -5  -8    7.26    3.51
 -13   5   8    8.54    3.33
  13  -5  -8    7.10    2.45
 -13   5   8    8.43    2.16
 -13  -5   6  369.91    6.94
  13   5  -6  417.25    6.97
  13  -5  -4   49.16    2.28
 -13  -5   4   54.10    3.60
 -13   5   4   47.20    2.13
  13   5  -4   37.07    2.61
  13  -5  -4   40.57    4.67
 -13   5   4   53.69    4.60
  13  -5  -2   84.24    5.49
  13  -5  -2   62.46    3.15
  13   5   0    6.73    2.25
 -13  -5   0    6.55    2.36
 -13   5   0    5.24    2.70
  13  -5   0   -0.97    3.11
 -13  -5  -2   28.21    3.14
  13  -5   2   35.66    6.11
 -13  -5  -4   10.42    3.21
  13   5   4   17.70    2.91
 -13   5  -4   17.05    6.99
  13  -5   4   32.45    8.89
 -13  -5  -6   13.09    3.72
  13   5   6   17.60    3.50
  13  -5   6    3.90   11.31
 -13   5  -6   21.87   14.82
 -13  -5  -8  141.65    6.24
  13   5   8  140.23    5.94
 -13  -5 -10    9.23    4.00
  13   5  10    7.54    3.64
 -13  -5 -12   39.65    5.24
  13   5  12   59.21    5.67
 -13  -5 -14    5.31    5.85
  13   5  14   27.91    6.32
  13   5  16    2.73    6.32
 -13  -5 -16   -8.51    6.42
 -13  -6  23    0.80   10.32
  13   6 -23   10.87   13.28
 -13   6  21   17.96    5.33
 -13  -6  21  -12.13   12.58
 -13   6  19   11.76    6.93
  13  -6 -19  -10.28    6.18
 -13  -6  19    2.77   11.85
  13  -6 -17    1.27    4.43
 -13   6  17   -1.30    3.84
 -13  -6  17    1.27    7.49
  13  -6 -17    5.98    5.06
 -13  -6  15    9.45    6.69
  13  -6 -15    6.38    3.47
  13  -6 -15   -0.51    3.49
 -13   6  15    3.11    3.36
 -13  -6  13   29.76    6.58
 -13   6  13    7.94    2.78
  13  -6 -13   11.93    3.24
 -13   6  13   11.51    3.94
 -13   6  11    1.54    2.75
  13  -6 -11    5.88    3.18
 -13   6  11    0.88    2.39
 -13  -6  11   -1.28    3.97
  13   6 -11    6.38    3.40
  13  -6  -9   25.58    2.57
 -13   6   9   26.52    2.45
  13  -6  -9    9.85    3.24
 -13   6   9   18.20    3.45
 -13  -6   9   20.02    3.75
  13   6  -9   23.26    3.66
  13  -6  -7    8.27    1.81
 -13   6   7    6.58    1.72
 -13   6   7    6.34    2.70
  13  -6  -7    5.71    2.64
  13   6  -7    8.41    2.41
 -13  -6   7    6.23    2.96
 -13   6   5    2.24    1.36
 -13  -6   5    9.95    2.48
 -13  -6   5    7.01    1.10
  13   6  -5    7.44    1.33
 -13   6   5   10.09    2.66
  13  -6  -5    6.19    2.35
  13  -6  -3    0.38    1.60
 -13   6   3    0.14    1.33
 -13  -6   3   -2.17    1.86
  13   6  -3    2.84    1.75
 -13   6   3   12.93    3.20
  13  -6  -3   10.83    3.46
 -13  -6   3   12.43    2.33
  13   6  -3    3.16    2.19
  13   6  -1   17.96    2.18
 -13  -6   1   18.35    2.59
 -13   6   1   15.42    2.88
  13  -6  -1   12.97    2.53
 -13   6   1   19.76    2.15
  13   6  -1   17.52    3.67
  13   6   1    7.94    1.99
 -13  -6  -1    5.42    2.23
  13  -6   1    6.82    3.11
 -13   6  -1   -0.21    2.29
  13   6   1   14.19    5.10
 -13  -6  -1    1.84    4.30
 -13  -6  -3    8.81    2.65
  13   6   3   12.92    2.43
  13  -6   3   23.47    5.74
 -13   6  -3   11.65    4.45
 -13   6  -5   -3.50    5.39
  13  -6   5   -2.46    6.24
 -13  -6  -7   18.33    3.28
 -13   6  -7   21.89    8.26
  13  -6   7   16.94   12.24
  13  -6   9   20.66   10.75
 -13   6  -9   -2.67   10.65
 -13  -6  -9    6.66    3.35
  13   6   9    3.46    2.74
  13   6  11   14.30    3.35
 -13  -6 -11    8.75    3.57
  13   6  13   14.11    3.83
 -13  -6 -13   -3.67    3.32
  13   7 -16   37.53    6.99
 -13  -7  16   11.82    5.93
 -13  -7  14   28.18    6.64
 -13   7  14   38.41    3.62
 -13   7  14   27.87    4.81
  13  -7 -14   27.85    4.65
 -13   7  12    3.74    2.85
  13  -7 -12    3.98    3.06
  13   7 -12    2.82    2.90
 -13  -7  12   -3.64    3.39
  13  -7 -12    2.55    2.26
 -13   7  12   -0.56    1.91
 -13   7  10    1.68    2.56
  13  -7 -10   -0.40    2.15
  13  -7 -10    3.97    2.07
 -13   7  10    5.52    1.82
 -13  -7  10   -0.74    2.79
  13   7 -10    6.86    2.85
 -13   7   8    6.86    1.55
  13  -7  -8    6.23    1.75
  13  -7  -8   10.80    2.66
 -13   7   8    6.33    2.68
 -13  -7   6    0.65    0.93
  13   7  -6    1.06    0.95
 -13   7   6   -0.64    1.81
  13  -7  -6    0.94    2.01
  13   7  -6    1.85    1.84
  13  -7  -6    1.96    1.46
 -13   7   6    0.80    1.20
 -13  -7   6    0.13    1.93
  13  -7  -4   -1.38    1.38
 -13   7   4    1.07    1.77
 -13  -7   4   -0.48    1.14
  13   7  -4    7.03    1.71
 -13  -7   4    3.29    2.18
  13  -7  -4    2.73    1.51
  13   7  -4    4.06    1.60
 -13   7   4    4.51    1.30
 -13   7   2    7.57    1.66
 -13  -7   2    5.84    2.03
  13  -7  -2    1.70    1.64
  13   7  -2    8.16    1.67
  13  -7  -2    8.29    2.92
 -13   7   2    4.77    2.57
 -13  -7   2   13.51    2.52
 -13  -7   0    3.92    2.04
  13   7   0   -0.81    1.35
  13   7   0    8.78    2.74
 -13   7   0    3.17    1.79
  13  -7   0   -1.37    2.16
 -13  -7  -2   10.30    2.26
  13   7   2    4.32    1.73
 -13  -7  -2   -1.23    2.87
  13   7   2   10.42    3.89
 -13   7  -2    3.99    2.34
  13  -7   2    2.08    2.74
 -13  -7  -4    0.43    2.15
  13   7   4    5.68    1.95
  13   7   4    2.44    4.94
 -13  -7  -4   10.17    4.83
  13  -7   4    7.67    4.62
 -13   7  -4    0.21    3.66
 -13  -7  -6   11.86    6.37
  13   7   6    6.35    7.12
 -13   7  -6   -1.34    4.90
 -13  -7  -6   -2.17    2.07
  13   7   6    0.48    1.89
  13  -7   6    0.91    5.58
  14   0 -26   31.55   14.73
 -14   0  26   13.78   14.39
 -14   0  24   42.29   15.17
  14   0 -24   56.67   13.28
 -14   0  22  132.66   15.89
  14   0 -22   68.37   13.06
  14   0 -20   46.90   10.35
 -14   0  20   49.68   11.23
  14   0 -18   38.09    8.34
 -14   0  18   12.74    8.29
  14   0 -16  252.39   11.65
 -14   0  16  386.93   14.31
  14   0 -14   49.70    6.88
 -14   0  14   39.44    6.94
  14   0 -12 2032.87   27.21
 -14   0  12 2060.03   28.38
  14   0 -10  285.66    8.91
 -14   0  10  194.23    7.72
  14   0  -8   29.10    3.93
 -14   0   8   22.59    3.42
  14   0  -6  674.16    9.43
 -14   0   6  767.10   10.01
 -14   0   4   56.99    1.81
  14   0  -4   59.02    1.78
 -14   0   2   80.06    2.28
  14   0  -2   83.21    2.46
  14   0   0 4308.66   18.65
 -14   0   0 4096.46   17.31
  14  -1 -33   16.06   11.46
  14  -1 -31  -25.56   10.68
 -14   1  29    1.20   13.08
  14  -1 -29   23.08   12.80
  14  -1 -27   -3.91   10.58
 -14   1  27  -16.43    9.92
  14  -1 -25   55.37   13.18
 -14   1  25   41.21   13.15
  14  -1 -23   28.71   10.87
 -14   1  23   30.23   11.85
 -14   1  21  111.59   12.72
  14  -1 -21  121.86   12.52
 -14  -1  21   82.83   15.02
  14   1 -21   92.03   14.41
  14  -1 -19    7.06    7.40
 -14  -1  19  -11.75   10.11
 -14   1  19   -4.83    6.59
  14   1 -19  -10.89    8.87
  14  -1 -17   16.28    7.13
  14   1 -17   28.73    8.89
 -14  -1  17   14.38    9.40
 -14   1  17   14.15    6.14
  14  -1 -15   74.77    8.17
 -14  -1  15   72.83    8.38
 -14  -1  13   96.66    7.14
 -14   1  13  145.85    9.88
 -14   1  11   11.23    4.59
  14   1 -11   31.96    6.89
 -14  -1  11   12.57    5.24
 -14  -1   9  468.60    9.42
  14   1  -9  432.34    9.10
  14  -1  -9  446.86   10.51
 -14   1   9  426.82   10.23
  14   1  -7  115.33    4.16
 -14  -1   7   89.15    6.20
  14   1  -7  120.68    6.24
 -14  -1   5  653.31    6.04
  14   1  -5  728.76    6.16
 -14  -1   5  637.59    9.84
  14  -1  -5  712.85   11.53
 -14   1   5  684.26   11.20
  14  -1  -3  555.46    3.01
 -14   1   3  629.37    2.82
  14   1  -1  205.92    3.92
 -14  -1   1  246.66    4.33
 -14  -1  -1 1430.69   11.02
  14   1   1 1433.00   11.07
 -14  -1  -3   16.89    5.58
  14   1   3   35.07    6.32
 -14   2  34   -1.43   11.44
  14  -2 -34  -17.04   11.36
 -14   2  32    1.40   10.95
  14  -2 -32    3.69    9.93
 -14   2  30   19.46   13.21
  14  -2 -30   12.33    9.38
  14  -2 -28    0.99    8.98
 -14   2  28   12.99   10.61
 -14   2  26    7.54   10.02
  14  -2 -26   -4.45    8.72
 -14   2  24   72.63   12.85
  14  -2 -24  129.34   13.76
 -14   2  22   18.75    8.98
  14  -2 -22   29.17    9.34
  14  -2 -20   59.35    9.20
 -14   2  20   65.59    9.40
  14  -2 -18  295.38   14.56
 -14   2  18  194.13   12.49
 -14  -2  16   40.03   11.18
  14   2 -16   59.81   10.17
 -14   2  16   69.59    8.30
  14  -2 -16   63.75    8.35
  14   2 -14   44.00    7.42
 -14  -2  14   47.87    8.85
  14  -2 -14   52.91    7.67
 -14   2  14   27.87    6.60
 -14  -2  12   49.94   15.75
  14   2 -12   80.36   19.06
  14  -2 -12   13.45    4.79
 -14   2  12   14.41    4.64
  14   2 -12   45.52    5.28
 -14  -2  12   22.81    5.45
  14   2 -10  264.22    7.75
  14   2 -10  398.53   11.89
  14  -2  -8   40.00    4.29
 -14   2   8   39.27    4.20
 -14  -2   8   22.37    5.27
  14   2  -8   28.13    2.57
 -14  -2   8   29.43    2.78
  14   2  -6  544.65    6.85
 -14  -2   6  490.44    6.84
  14  -2  -4   21.09    4.23
 -14   2   4   29.64    4.69
  14   2  -4   31.14    2.37
  14  -2  -4   27.05    0.85
 -14   2   2  631.73    8.81
  14   2  -2  332.27    4.60
 -14  -2   0  102.19    3.59
  14   2   0  146.78    4.05
 -14  -2  -2  172.30    5.32
  14   2   2  198.56    5.41
 -14  -2  -4   29.46    4.30
  14   2   4   38.58    4.54
 -14  -2  -6  249.47    9.47
  14   2   6  383.35   10.63
  14  -3 -31   15.64    9.93
 -14   3  31    4.95    9.50
 -14   3  29    5.45    9.24
  14  -3 -29   30.73    9.82
  14  -3 -27    3.54    8.01
 -14   3  27   11.51    8.37
  14  -3 -25   57.50    9.75
 -14   3  25   42.48    9.63
  14  -3 -23   18.00    7.58
 -14   3  23   13.17    7.72
 -14   3  21    3.53    6.76
  14  -3 -21   23.65    7.79
 -14   3  19   28.58    7.92
  14  -3 -19   18.28    7.79
 -14   3  17  199.92   12.72
  14  -3 -17  479.58   19.56
  14   3 -15  415.44   22.66
  14  -3 -15  207.54   12.05
 -14  -3  13  342.40   16.48
  14   3 -13  144.84   11.36
  14   3 -11  610.30   13.74
 -14  -3  11  500.09   12.77
 -14  -3   9  355.46    7.20
 -14  -3   9  635.29   11.51
 -14  -3   7   48.70    3.65
  14  -3  -7   37.46    3.86
 -14   3   7   45.68    4.09
  14  -3  -7   34.05    2.49
 -14   3   5    9.21    2.59
  14  -3  -5    4.74    2.61
 -14  -3   5    7.22    2.31
  14   3  -5    6.15    2.23
 -14   3   3    9.48    2.58
  14  -3  -3    6.15    1.59
 -14   3   3    7.86    1.22
 -14   3   1  105.44    4.75
  14  -3  -1  134.20    5.80
 -14   3  -1   76.47    9.84
 -14  -3  -1  103.83    3.88
 -14  -3  -3   82.70    4.32
  14   3   3  112.70    4.73
 -14  -3  -5  131.46    5.60
  14   3   5   98.61    5.08
 -14  -3  -7   19.05    5.29
  14   3   7   21.99    5.30
 -14  -3  -9   48.33    8.20
  14   3   9   70.63    8.71
 -14  -3 -11  215.54   12.01
  14  -4 -30   -4.04    6.46
 -14   4  30    5.65    8.30
  14  -4 -28   -3.53    5.71
 -14   4  28    1.94    6.87
  14  -4 -26    8.54    6.17
 -14   4  26    6.67    6.18
  14  -4 -24   54.04    8.71
 -14   4  24   25.39    7.63
 -14   4  22   12.17    6.48
  14  -4 -22   28.62    7.18
 -14   4  20   51.14    8.35
  14  -4 -20   69.69    9.23
 -14  -4  18   23.77   14.71
 -14   4  18   59.88    9.58
  14   4 -16   -1.66   16.29
 -14  -4  16   19.24   18.11
  14  -4 -16   14.74    6.60
 -14   4  16   14.33    6.86
 -14  -4  14   17.74   10.07
  14   4 -14   15.05    9.42
  14  -4 -14    7.67    4.95
 -14   4  14   15.55    5.75
  14  -4 -12   55.80    6.83
  14  -4 -12   91.75    6.69
 -14   4  10   96.36    6.75
  14  -4 -10  123.38    7.58
 -14  -4   8   39.13    4.33
  14  -4  -8   27.18    3.82
 -14   4   8   33.94    4.36
 -14   4   6   13.57    3.10
  14  -4  -6    7.36    2.79
 -14  -4   6    6.78    0.32
 -14   4   4   38.08    4.17
  14  -4  -4   34.18    4.29
 -14   4   4   38.22    1.75
 -14   4   2   30.26    2.45
  14  -4  -2   33.79    2.60
  14   4   0   48.79    3.16
  14  -4   0   37.90    5.51
  14  -4   2   35.90   12.07
 -14   4  -2    9.39    7.68
 -14  -4  -4  317.66    7.07
  14   4   4  202.23    6.23
  14   4   6   51.80    4.56
 -14  -4  -6   28.57    4.51
  14   4   8   24.50    4.56
 -14  -4  -8   12.78    4.25
  14   4  10   67.78    6.49
 -14  -4 -10   41.38    5.99
 -14  -4 -12    1.46    6.97
  14   4  12   13.41    7.31
 -14  -4 -14   36.45    8.55
  14  -5 -27   14.90    6.08
 -14   5  27   -5.14    4.62
 -14   5  25    7.46    5.54
  14  -5 -25   34.47    7.95
 -14   5  23    3.72    5.05
  14  -5 -23   10.31    6.16
  14  -5 -21    6.90    5.90
 -14   5  21    4.18    5.30
 -14  -5  21    2.83   12.02
  14   5 -21    9.43   13.89
  14  -5 -19   -2.97    5.45
 -14   5  19   -0.77    5.42
  14   5 -19    7.15   16.80
 -14  -5  19   14.51   14.55
  14  -5 -17   28.48    6.77
 -14  -5  17    7.30   11.20
 -14  -5  15   -2.47    8.18
  14   5 -15   -6.91    7.36
  14  -5 -15   -2.22    5.75
 -14   5  15    0.99    4.36
 -14   5  13    9.49    4.08
  14  -5 -13   11.06    4.06
 -14   5  13   14.74    4.60
 -14  -5  11   29.18    5.57
 -14   5  11   42.99    5.16
 -14  -5   9   12.40    3.74
  14   5  -9   15.84    3.67
  14  -5  -9    5.41    2.41
  14  -5  -7    1.40    1.92
  14  -5  -7    5.84    3.33
 -14   5   7   -0.27    2.48
  14   5  -7    3.81    2.76
 -14  -5   7    4.93    3.19
 -14   5   5   62.43    4.72
  14  -5  -5   35.09    4.26
 -14  -5   3    2.06    2.32
 -14   5   3    1.39    1.70
  14  -5  -3    5.83    1.97
  14   5  -3   -0.96    2.13
  14  -5  -3   11.54    3.87
 -14  -5   3   10.63    4.51
 -14  -5   1   23.43    2.78
  14  -5  -1   17.14    2.84
 -14   5   1   16.67    2.84
 -14  -5  -1   10.43    2.69
  14   5   1    9.02    2.48
  14  -5   1   17.58    5.60
 -14   5  -1   10.71    4.31
  14  -5   3   32.86    7.48
 -14   5  -3    7.36    6.30
  14   5   5   42.78    3.67
 -14  -5  -5   33.39    3.74
 -14   5  -5   37.17   12.87
  14  -5   5   33.71   12.02
 -14  -5  -7   14.08    3.80
  14   5   7   10.31    3.31
 -14   5  -7   15.63   12.33
 -14  -5  -9   44.77    4.72
  14   5   9   44.17    4.30
 -14  -5 -11    1.67    3.99
  14   5  11    4.07    3.88
  14   5  13   22.87    6.00
 -14  -5 -13   10.86    4.71
 -14  -5 -15   25.46    6.73
  14   5  15   15.44    6.35
 -14  -5 -17   17.32    7.55
 -14   6  22    6.73    4.79
  14  -6 -22   -4.13    5.48
  14   6 -22    1.02   15.49
 -14  -6  22   27.22   12.71
 -14   6  20   -1.76    5.44
 -14  -6  20  -11.64   11.85
 -14   6  18   36.12    6.05
 -14  -6  18   38.82    8.67
  14  -6 -18   25.11    6.32
  14  -6 -16   24.45    5.10
 -14   6  16    5.67    3.97
 -14  -6  16   26.50    7.74
  14  -6 -16   11.58    3.82
 -14   6  16   23.83    4.55
 -14  -6  14    0.34    6.12
  14   6 -14    1.60    5.57
 -14   6  14    5.34    2.96
 -14   6  14    2.38    3.12
  14  -6 -14    4.20    3.23
 -14   6  12    5.86    3.05
  14  -6 -12   21.51    4.14
  14  -6 -12   12.80    2.99
 -14   6  12    6.05    2.57
 -14  -6  12   10.18    4.34
  14   6 -12   14.74    4.21
  14  -6 -10   20.33    3.89
 -14   6  10   19.36    3.81
 -14  -6  10   24.98    3.78
  14  -6  -8    3.39    1.84
 -14   6   8    2.86    2.25
  14  -6  -8    5.26    2.49
 -14  -6   8    7.56    2.97
  14   6  -8   11.03    2.60
  14   6  -6   -0.83    1.86
  14  -6  -6    6.29    1.51
 -14  -6   6    1.50    2.21
 -14   6   6    2.13    1.34
 -14  -6   6    0.51    0.71
 -14   6   6    1.78    2.24
  14   6  -6    1.63    0.98
  14  -6  -6    5.99    2.55
 -14   6   4   16.82    1.65
  14  -6  -4   16.86    1.87
  14   6  -4   23.96    2.31
 -14  -6   4   24.22    2.34
 -14  -6   4   23.89    2.85
 -14   6   4   23.02    3.61
  14  -6  -4    9.99    3.04
  14   6  -4   19.25    2.34
  14   6  -2   14.21    2.04
 -14  -6   2   13.84    2.20
 -14   6   2   17.86    3.92
  14  -6  -2   12.42    2.79
  14  -6  -2   14.98    2.05
 -14   6   2   18.10    1.97
 -14  -6   2   19.97    3.06
  14   6  -2   22.43    3.68
 -14  -6   0    9.64    2.16
  14  -6   0    0.42    2.38
 -14   6   0    4.64    2.15
 -14  -6   0    8.25    4.29
  14   6   0   12.01    5.23
 -14  -6  -2   -0.49    2.11
  14   6   2    5.42    2.10
  14  -6   2   12.48    5.01
 -14   6  -2    0.86    3.27
 -14  -6  -2    7.65    6.22
 -14   6  -4   10.91    5.03
  14  -6   4   16.68    5.94
 -14  -6  -4   14.18    2.98
 -14  -6  -6   16.71    3.04
  14  -6   6    6.22    9.42
 -14   6  -6   10.88    6.07
  14   6   8    1.37    2.81
 -14  -6  -8   -0.18    2.91
  14  -6   8   16.46   10.35
 -14   6  -8    0.61   11.66
 -14  -6 -10    0.41    3.08
  14   6  10    1.67    2.80
 -14   6 -10   12.59   11.80
 -14  -6 -12   11.85    3.65
  14   6  12   -2.04    2.77
 -14  -7  15  -10.74    5.08
  14   7 -15    6.98    4.93
 -14   7  15    1.88    2.35
  14  -7 -15    2.64    2.74
 -14   7  15    7.48    3.42
  14  -7 -15    8.19    3.76
 -14   7  13    7.99    2.85
  14  -7 -13    0.46    2.72
 -14  -7  13   10.26    4.18
  14   7 -13   -3.30    3.62
 -14   7  13    3.38    2.27
  14  -7 -13    2.44    2.52
  14  -7 -11    0.44    2.74
 -14   7  11    6.37    3.09
  14  -7 -11    9.57    2.14
 -14   7  11   12.00    2.02
  14   7 -11   11.93    2.92
 -14  -7  11    5.13    2.93
  14  -7  -9    2.17    1.65
  14  -7  -9    3.20    2.30
 -14   7   9    5.20    2.63
 -14  -7   9    0.90    2.77
  14   7  -9    9.47    2.66
  14   7  -7    1.60    1.81
  14  -7  -7   -0.08    1.34
 -14   7   7    2.99    1.34
  14  -7  -7    0.34    2.06
 -14   7   7   -1.31    1.60
  14   7  -7    3.40    0.93
 -14  -7   7    3.77    2.23
 -14  -7   5    9.94    2.36
  14   7  -5    2.70    1.86
  14  -7  -5    6.81    1.55
 -14   7   5    6.48    1.49
  14  -7  -5    3.86    2.22
 -14   7   5   10.62    2.66
 -14  -7   5    3.11    1.06
  14   7  -5    3.61    1.22
  14   7  -3   18.60    2.14
 -14   7   3   19.16    2.00
  14  -7  -3   16.80    2.15
 -14  -7   3   15.85    2.15
 -14   7   3    9.74    2.76
  14  -7  -3   14.31    3.73
  14   7  -3   23.47    3.25
 -14  -7   3   19.17    2.37
 -14   7   1    0.61    1.48
  14  -7  -1   -1.02    1.90
  14   7  -1    8.88    2.55
  14   7  -1    3.34    1.67
 -14  -7   1    6.46    1.88
 -14   7   1    1.28    1.94
 -14  -7   1    9.08    2.85
  14   7   1    8.21    1.86
 -14  -7  -1    6.49    2.06
 -14  -7  -1   17.38    4.08
  14   7   1    6.26    3.86
  14  -7   1    5.70    2.49
 -14   7  -1    0.12    2.07
 -14  -7  -3    8.06    2.37
  14   7   3    6.01    1.97
  14   7   3   -4.12    4.34
 -14  -7  -3    7.53    4.79
  14  -7   3    6.09    4.12
 -14   7  -3    0.17    2.75
 -14  -7  -5   17.75    6.74
  14   7   5   11.93    6.63
 -14   7  -5   -1.85    4.24
 -14  -7  -5   14.10    2.82
  14   7   5    5.04    1.98
  14  -7   5   12.73    5.38
  15   0 -29   23.35   12.15
  15   0 -27    7.26   12.82
 -15   0  27   23.07   13.63
  15   0 -25    3.45   10.92
 -15   0  25    6.84   12.93
  15   0 -23   20.62   10.66
 -15   0  23   13.04   12.09
 -15   0  21    3.42   10.27
  15   0 -21   -0.65    8.72
  15   0 -19   13.26    7.51
 -15   0  19    6.54    7.93
  15   0 -17    4.33    6.13
 -15   0  17   10.04    7.10
  15   0 -15    1.82    5.82
 -15   0  15    4.08    5.36
  15   0 -13   17.26    6.58
 -15   0  13   56.99    8.20
 -15   0  11    7.62    4.01
  15   0 -11    1.42    4.17
  15   0  -9   30.32    3.82
 -15   0   9    7.90    3.27
 -15   0   7   -0.28    5.60
  15   0  -7   -1.28    5.75
 -15   0   7    6.77    2.55
  15   0  -7    1.65    2.20
  15   0  -5    2.20    1.93
 -15   0   5    1.25    2.03
 -15   0   3    7.92    1.41
  15   0  -3   16.09    1.60
 -15   0   1   54.12    3.02
  15   0  -1   18.35    2.72
  15  -1 -34   -9.06   10.43
  15  -1 -32    1.28   11.55
 -15   1  32    8.94   11.77
 -15   1  30   33.02   14.37
  15  -1 -30    4.55   11.21
 -15   1  28   -6.52   10.53
  15  -1 -28    2.02   10.34
  15  -1 -26  135.67   15.44
 -15   1  26  110.00   15.71
  15  -1 -24  296.70   18.39
 -15   1  24  226.53   18.10
 -15  -1  22  117.95   16.73
  15   1 -22   84.04   14.28
  15  -1 -20   16.87    7.73
 -15   1  20   30.18    8.66
  15   1 -20   17.07    9.89
 -15  -1  20   -5.96   10.31
 -15   1  18   26.59    6.94
  15   1 -18   10.18    7.80
 -15  -1  18   29.21    9.60
  15  -1 -18   10.21    6.73
 -15   1  16   55.72    7.63
  15  -1 -16   43.71    7.07
  15   1 -16   45.50    6.80
 -15  -1  16   71.84    8.70
  15  -1 -14  166.01   10.32
 -15   1  14  517.95   16.72
  15   1 -12  113.70    7.83
 -15  -1  12   66.51    6.43
  15  -1 -12  112.71    7.45
 -15   1  12   95.81    6.73
  15   1 -10   -5.79   15.46
 -15  -1  10  -28.17   14.77
  15   1  -8   28.07    6.01
 -15  -1   8   32.48    6.09
  15  -1  -6  378.26    7.84
 -15   1   6  396.64    8.15
  15   1  -6  370.99    5.39
 -15   1   4   22.08    0.83
 -15  -1   4   18.42    1.91
 -15  -1   2   81.97    2.78
  15   1  -2   98.01    2.95
  15   1   0  101.67    4.32
 -15  -1   0  116.37    4.07
 -15  -1  -2   57.04    4.48
  15   1   2   99.25    5.09
 -15  -1  -4  184.25    8.77
  15  -2 -33    1.24    8.77
 -15   2  33    2.85   11.47
 -15   2  31   -8.48    9.38
  15  -2 -31   10.30    9.71
  15  -2 -29   10.08    8.90
 -15   2  29   -1.11    8.76
 -15   2  27   32.93   11.17
  15  -2 -27   80.24   12.77
  15  -2 -25   14.66    8.69
 -15   2  25   -0.84    9.33
  15  -2 -23   52.96    9.85
 -15   2  23   13.82    8.12
  15  -2 -21   21.70    7.57
 -15   2  21   28.85    8.16
  15   2 -19   40.94   11.00
 -15   2  19   30.31    8.64
 -15  -2  17  336.30   17.76
  15   2 -17  208.37   13.07
 -15  -2  15 1291.73   24.59
  15  -2 -15 1325.20   25.47
 -15  -2  13  -21.50   12.87
  15   2 -13   17.95   15.94
 -15   2  13   10.29    4.80
  15   2 -13   17.67    4.76
 -15  -2  13    4.30    5.22
  15   2 -11    8.61    4.19
 -15  -2  11    8.20    4.35
 -15  -2  11   -8.42    7.97
 -15  -2   9  376.16   10.13
  15   2  -9  494.86   10.91
 -15   2   7   21.67    3.46
  15  -2  -7   18.77    3.36
 -15  -2   7   32.92    3.36
  15   2  -7   30.85    2.14
 -15  -2   7   28.68    2.07
 -15  -2   5   85.38    3.00
  15  -2  -5   76.70    4.99
 -15   2   3   20.68    2.62
  15   2  -3   15.50    1.93
 -15  -2   3   12.25    1.90
 -15  -2   1  146.80    3.71
  15   2  -1   91.85    3.27
  15   2   1  252.93    5.50
 -15  -2  -1  266.27    5.31
 -15  -2  -3   35.72    4.17
  15   2   3   35.27    3.90
  15   2   5  110.52    6.79
 -15  -2  -5  153.33    6.55
 -15  -2  -7  404.07   12.68
  15   2   7  296.95   10.90
  15  -3 -32   -7.97    7.38
 -15   3  32   -2.50    8.40
 -15   3  30   -2.22    8.10
  15  -3 -30   20.66    9.24
  15  -3 -28   -0.91    7.13
 -15   3  28   22.60    9.01
  15  -3 -26    9.34    7.35
 -15   3  26    7.51    7.37
  15  -3 -24   45.60    8.62
 -15   3  24   60.71    9.66
 -15   3  22   23.15    7.61
  15  -3 -22   40.03    8.48
  15  -3 -20   -1.79    6.92
 -15   3  20   -8.98    5.93
  15  -3 -18    9.25    7.75
 -15   3  18   -5.99    5.66
 -15  -3  16   10.72   14.87
  15   3 -16   46.64   17.24
 -15  -3  14   -2.86   14.98
 -15   3  14   51.69    7.02
  15  -3 -12   38.37    5.02
 -15   3  12   42.61    5.51
 -15  -3  12   32.13    6.74
  15   3 -12   52.86    5.98
 -15  -3  12   52.42    8.86
 -15   3  10  100.44    6.47
  15  -3 -10  124.93    7.32
 -15  -3  10  112.21    5.26
 -15  -3   8   98.21    4.66
  15  -3  -8  108.84    3.80
  15  -3  -6   39.17    3.67
 -15   3   6   29.19    3.52
  15  -3  -6   39.85    1.81
 -15   3   6   39.18    1.97
 -15  -3   6   44.59    3.15
  15   3  -6   34.77    2.63
  15   3  -4   20.01    2.01
 -15   3   4   16.59    1.12
  15  -3  -4   17.75    1.33
 -15   3   2   41.17    3.20
  15  -3  -2   43.97    3.91
  15   3  -2   35.94    2.42
 -15   3   0   -0.35    8.40
  15  -3   0    7.41    8.51
 -15  -3  -2    1.36    2.62
  15   3   2    2.97    2.64
 -15  -3  -4   16.62    3.93
  15   3   4    9.78    3.42
 -15  -3  -6   44.13    4.78
  15   3   6   51.86    5.07
  15   3   8   21.92    6.86
 -15  -3  -8   14.98    6.23
 -15  -3 -10   36.57    9.07
  15   3  10   26.28    8.39
  15  -4 -29    2.71    6.57
 -15   4  29    7.92    7.41
  15  -4 -27   13.47    6.53
 -15   4  27    1.70    6.44
  15  -4 -25    8.46    5.68
 -15   4  25   36.95    7.67
  15  -4 -23   -1.41    5.60
 -15   4  23    4.91    5.47
 -15   4  21   11.15    5.68
  15  -4 -21   -1.32    5.85
 -15  -4  19  -20.52   13.55
  15   4 -19   33.90   16.78
  15  -4 -19    0.76    7.64
 -15   4  19   14.27    6.55
  15  -4 -17  190.27   12.07
  15   4 -17  247.89   23.11
  15   4 -15   -3.11    9.57
 -15  -4  15   12.91   10.02
  15  -4 -15    6.78    5.05
 -15   4  15    1.43    4.75
  15  -4 -13   75.77    6.66
 -15   4  13   26.79    5.33
 -15   4  11  458.80    9.32
  15   4 -11  664.82   13.44
  15  -4  -9  153.73    4.51
 -15   4   9  152.07    4.51
  15  -4  -9  164.57    7.77
 -15   4   9  135.95    7.12
  15  -4  -7   93.54    2.91
  15  -4  -7  113.52    6.29
  15  -4  -5  300.11    9.72
  15   4  -5  330.61    6.02
 -15  -4   5  298.77    5.87
 -15   4   3    3.95    2.95
  15  -4  -3   -0.47    2.49
 -15  -4   3    2.80    2.20
  15   4  -3    6.42    1.96
 -15   4   3    2.32    1.56
  15  -4  -3    3.81    1.85
  15  -4  -1   59.43    4.83
 -15   4   1   50.01    3.59
 -15   4  -1   12.41    6.17
  15  -4   1   16.09    7.68
 -15   4  -3   -4.98   11.06
 -15  -4  -3    5.64    3.22
  15   4   3    8.50    3.13
 -15  -4  -5   26.66    4.38
  15   4   5   36.10    4.21
 -15  -4  -7    9.94    4.20
  15   4   7   77.75    5.02
 -15  -4  -9   -1.89    4.51
  15   4   9    5.44    4.65
 -15  -4 -11   59.99    7.42
  15   4  11  102.69    8.07
 -15  -4 -13    0.34    7.34
  15   4  13   -7.18    7.14
 -15   5  26    0.77    4.87
  15  -5 -26    4.04    5.11
  15  -5 -24   45.63    7.76
 -15   5  24   20.01    5.86
 -15  -5  22    3.04   11.28
  15   5 -22  -11.36   13.97
 -15   5  22   -2.88    4.83
  15  -5 -22    6.40    5.46
 -15  -5  20   18.91   13.18
 -15   5  20   19.32    6.46
 -15  -5  18   17.04   13.32
 -15   5  18   35.69    6.66
 -15  -5  16   56.98    9.42
  15  -5 -16   16.80    6.72
  15  -5 -16   22.21    5.53
 -15   5  16   47.45    6.92
 -15   5  14   43.15    6.07
  15  -5 -14   40.78    5.39
  15  -5 -14   38.75    5.53
  15  -5 -12   97.65    4.60
 -15   5  12   74.96    6.30
  15  -5 -12   99.03    7.27
 -15   5  10   12.20    3.88
  15  -5 -10   21.63    4.07
 -15  -5  10   11.17    4.09
  15   5 -10   22.51    3.89
 -15   5  10   23.59    3.09
  15  -5  -8    4.32    2.89
 -15   5   8    5.48    2.81
 -15   5   8    5.03    1.95
  15  -5  -8    4.87    2.04
 -15  -5   8   -1.53    3.31
  15   5  -8   -2.70    2.86
 -15  -5   6    6.19    0.67
 -15   5   6    5.25    2.69
  15   5  -6    7.02    2.63
 -15   5   6    2.98    1.50
 -15  -5   6    8.68    2.77
  15  -5  -6    3.86    1.58
  15   5  -6    8.06    1.18
  15   5  -4   51.40    2.99
  15  -5  -4   42.26    2.47
 -15  -5   4   57.50    3.43
 -15   5   4   52.24    2.12
  15  -5  -4   43.83    5.31
 -15   5   4   60.16    5.37
  15  -5  -2   23.81    2.68
 -15   5   2   18.99    2.26
 -15  -5   0   11.13    2.64
  15   5   0    2.49    2.15
 -15   5   0    7.63    3.27
  15  -5   0    6.16    4.11
  15   5   2   30.02    3.13
  15  -5   2   33.32    6.54
 -15  -5  -2   26.20    3.34
 -15   5  -2   34.28    5.64
 -15   5  -4   26.83   10.18
  15  -5   4   30.15   13.81
  15   5   6   14.33    3.24
 -15  -5  -6    5.69    3.34
 -15   5  -6    6.74   10.97
 -15  -5  -8    6.05    3.64
  15   5   8   -4.40    3.02
 -15  -5 -10    9.64    3.67
  15   5  10    3.86    3.57
 -15  -5 -12    3.13    4.48
  15   5  12   22.52    4.49
  15   5  14   26.39    6.31
 -15  -5 -14   23.44    6.08
  15   5  16   18.79    7.12
 -15  -5 -16   14.75    6.73
  15  -6 -21   33.93    7.44
 -15   6  21   12.25    6.31
 -15  -6  21   21.33   14.98
  15   6 -21   15.37   11.87
  15  -6 -19   17.28    5.86
 -15   6  19   10.12    4.57
  15  -6 -19    7.04    6.54
  15   6 -19   16.94    8.31
 -15  -6  19   -2.95    8.13
  15   6 -17   11.88    6.56
 -15  -6  17   20.72    7.83
 -15   6  17   10.06    5.05
  15  -6 -17    3.35    4.78
 -15   6  17    5.48    3.81
  15  -6 -17    5.58    4.10
  15   6 -15    2.78    5.96
 -15  -6  15   -2.14    6.20
  15  -6 -15    1.94    3.25
 -15   6  15   11.05    3.30
 -15   6  15    1.51    3.33
  15  -6 -15    4.24    3.40
 -15   6  13    3.14    2.78
 -15   6  13    9.27    2.67
  15  -6 -13    6.76    2.87
 -15   6  11    5.61    3.08
  15   6 -11    6.75    3.12
 -15  -6  11    0.35    3.30
 -15   6  11    9.64    2.43
  15  -6 -11    7.18    2.37
  15  -6  -9   10.93    3.03
 -15   6   9   12.27    3.05
 -15   6   9   11.01    1.83
  15  -6  -9   14.39    2.17
  15   6  -9    9.32    2.83
 -15  -6   9   19.25    3.45
 -15   6   7   24.66    1.96
  15   6  -7   20.96    2.59
 -15   6   7   22.86    3.62
  15  -6  -7   15.34    3.32
  15   6  -7   22.80    1.18
 -15  -6   7   15.60    2.74
 -15  -6   5   17.64    2.73
  15   6  -5   24.91    2.65
  15   6  -5   23.01    2.15
 -15  -6   5   16.52    1.60
  15  -6  -5   20.22    3.41
 -15   6   5   24.99    3.29
 -15  -6   3    0.50    1.88
  15   6  -3    4.02    1.59
  15  -6  -3    2.86    1.67
 -15   6   3    3.94    1.46
  15  -6  -3    2.92    2.96
 -15   6   3    6.20    3.01
  15   6  -3    4.87    2.93
  15   6  -1   10.05    1.96
 -15  -6   1    5.93    2.08
 -15   6   1    6.51    2.12
  15  -6  -1    2.04    2.08
 -15  -6   1    4.06    4.30
  15  -6   1    5.94    3.70
 -15   6  -1   10.45    2.75
 -15  -6  -1   13.90    2.36
 -15   6  -3   -0.43    4.74
  15   6   3    6.87    2.24
 -15  -6  -3    0.41    2.30
  15  -6   3    5.35    5.26
 -15  -6  -5   14.52    2.98
  15   6   5   12.57    2.47
 -15   6  -5   11.81    5.99
  15  -6   5    1.29    7.04
 -15   6  -7    6.10   11.56
  15  -6   7    0.99    9.95
 -15  -6  -9   -0.62    3.37
  15   6   9   -1.60    2.46
 -15   6  -9   -2.60   10.34
 -15  -6 -11   -1.98    3.21
  15   6  11   -0.21    2.72
 -15  -6 -13    5.91    3.80
  15   6  13    3.07    3.28
  15  -7 -14    3.68    3.12
 -15   7  14    3.93    2.51
  15  -7 -14    7.37    2.81
 -15   7  14    5.02    2.46
 -15  -7  14    2.14    4.59
  15   7 -14   -0.77    3.60
  15  -7 -12    9.25    3.37
 -15   7  12   14.63    3.81
  15   7 -12   15.11    3.33
 -15  -7  12    4.83    3.42
 -15   7  10    0.80    2.38
  15  -7 -10   -0.38    2.24
  15  -7 -10    3.46    1.80
 -15   7  10    3.15    1.57
  15   7 -10    2.75    2.65
 -15  -7  10   -3.62    2.58
  15  -7  -8    1.49    1.43
 -15   7   8    1.60    1.39
 -15   7   8    2.67    2.24
  15  -7  -8   -1.05    1.79
  15   7  -8    0.68    1.70
 -15  -7   8   -1.26    2.37
 -15  -7   6    4.12    2.05
  15   7  -6    2.91    1.93
  15  -7  -6    4.01    1.40
  15  -7  -6    2.80    2.13
 -15  -7   6    7.88    1.06
 -15   7   6   10.92    2.69
  15   7  -6    5.27    1.18
  15  -7  -4    8.01    1.80
 -15  -7   4    3.30    2.08
  15   7  -4    4.67    1.66
 -15   7   4    8.08    2.72
  15  -7  -4   -1.47    1.95
 -15  -7   4    0.88    1.34
  15  -7  -2    3.83    1.80
 -15   7   2   16.35    3.67
  15  -7  -2    1.91    2.16
  15   7  -2    3.90    1.64
 -15  -7   2    6.14    1.97
 -15   7   2    9.02    1.59
  15   7  -2   15.24    2.77
 -15  -7   0    4.57    1.88
  15   7   0    4.20    1.77
 -15   7   0    4.42    2.09
  15  -7   0    1.74    2.16
 -15  -7   0    6.64    3.27
  15   7   0    4.18    3.58
 -15  -7  -2    5.69    2.08
  15   7   2    3.52    1.71
  15  -7   2   -1.45    3.17
 -15   7  -2    3.03    2.43
 -15  -7  -2    2.77    4.34
  15   7   2   -0.92    4.65
  15   7   4    0.96    1.79
 -15  -7  -4    4.64    2.35
  15  -7   4    1.77    4.71
 -15   7  -4   -0.98    4.20
 -15  -7  -4   -2.12    5.95
  16   0 -32    9.16   11.96
 -16   0  30    9.03   11.95
  16   0 -30    3.39   11.74
 -16   0  28    1.12   12.13
  16   0 -28   37.76   12.72
 -16   0  26   22.35   13.18
  16   0 -26   16.96   11.12
  16   0 -24   -0.77    9.81
 -16   0  24   31.00   12.76
 -16   0  22   22.59   10.96
  16   0 -22    1.33    9.02
  16   0 -20   48.87    8.39
 -16   0  20    3.99    7.58
  16   0 -18  425.82   14.94
 -16   0  18  350.12   14.24
  16   0 -16  540.89   15.90
 -16   0  16  399.85   14.24
 -16   0  14   19.92    6.19
  16   0 -14  285.79   12.62
 -16   0  12  404.58   11.85
  16   0 -12  773.44   15.18
 -16   0  10  342.07    8.77
  16   0 -10  452.58   10.15
 -16   0   8 1058.07   13.16
  16   0  -8  802.27   11.46
 -16   0   6   13.67    2.73
  16   0  -6   15.70    2.44
 -16   0   4   48.94    1.60
  16   0  -4   33.93    1.52
 -16   0   2 2407.99    9.50
  16   0  -2 2388.59   10.35
  16   0   0  199.62    6.30
 -16   0   0  208.82    5.88
 -16   1  33    4.03   11.86
  16  -1 -33   -3.93   10.64
  16  -1 -31   -4.52    8.31
 -16   1  31   24.65   12.51
 -16   1  29   33.03   12.55
  16  -1 -29   -3.07    9.04
  16  -1 -27  174.67   15.83
 -16   1  27   79.73   14.78
 -16   1  25   13.58   10.25
  16   1 -25  -11.68   11.47
 -16  -1  25   21.45   13.32
  16  -1 -25   13.57   10.00
 -16   1  23  156.23   14.02
  16   1 -23  135.05   15.11
 -16  -1  23  247.49   19.31
  16  -1 -23  180.90   14.16
  16  -1 -21   18.65    8.00
 -16   1  21   28.61    8.53
 -16  -1  21   36.69   11.75
  16   1 -19   89.93   10.30
 -16   1  19   92.04    8.94
  16  -1 -19   82.18    9.32
 -16   1  17   59.37    7.80
 -16  -1  17   82.21    8.86
  16  -1 -15  810.34   20.31
 -16   1  15  346.32   14.64
  16   1 -13   36.36    5.90
 -16  -1  13   42.80    5.99
  16   1 -11   15.51   14.18
  16  -1 -11  112.84    6.14
  16   1  -9  246.34    6.84
  16  -1  -9  250.95    7.99
 -16   1   9  254.32    8.08
 -16  -1   9  231.90    6.59
 -16  -1   7   35.37    3.60
  16   1  -7   64.10    3.55
  16   1  -5  579.82    5.24
  16  -1  -5  712.91   12.82
 -16   1   3  499.86    3.22
  16  -1  -3  483.37    3.76
 -16  -1   1  284.77    4.56
  16   1  -1  293.58    4.68
 -16  -1  -1  132.45    4.46
  16   1   1  186.52    4.93
 -16  -1  -3  327.55    8.55
  16   1   3  437.87   10.02
  16  -2 -32   14.07    9.95
 -16   2  32   23.73   11.71
 -16   2  30    5.56   10.14
  16  -2 -30   46.45   11.72
 -16   2  28   -7.92    7.86
  16  -2 -28   18.35    9.49
  16  -2 -26    6.27    7.79
 -16   2  26    5.11    7.85
  16  -2 -24   75.37   10.12
 -16   2  24   47.83   10.15
  16  -2 -22   10.27    7.33
 -16   2  22   -4.72    6.63
 -16  -2  20  402.73   20.37
  16  -2 -20  615.31   20.81
 -16   2  20  431.98   17.93
 -16   2  18  524.24   18.41
  16  -2 -18  809.13   22.06
 -16  -2  16  105.84   10.16
  16  -2 -16   68.85    8.37
 -16   2  16  102.84   10.13
  16   2 -14  343.01   10.97
 -16  -2  14  345.99   11.51
  16   2 -14  318.13   18.68
 -16   2  14  323.33   12.76
  16  -2 -14  441.70   14.00
 -16  -2  12  687.94   13.25
  16   2 -12  787.43   14.12
 -16  -2  10   73.49    7.33
  16  -2 -10  125.26    6.93
  16   2  -8  264.34    5.45
  16   2  -8  339.29    6.43
 -16  -2   6    1.23    2.30
  16   2  -6    6.45    1.62
  16  -2  -4  116.02    1.61
 -16   2   4   68.92    0.97
 -16  -2   2   82.31    2.82
  16   2  -2   75.12    2.72
  16   2   0  602.74    7.16
 -16  -2   0  698.79    7.63
 -16  -2  -2   73.23    4.25
  16   2   2  106.44    4.49
 -16  -2  -4    3.82    4.11
  16   2   4   14.48    4.41
 -16  -2  -6   83.15    7.03
  16   2   6   89.75    7.86
 -16   3  31    1.14    8.55
  16  -3 -31   12.63    8.68
  16  -3 -29   23.79    8.77
 -16   3  29    2.01    7.39
  16  -3 -27   15.96    7.36
 -16   3  27    1.71    7.33
  16  -3 -25    0.68    6.38
 -16   3  25   -8.82    5.55
 -16   3  23    2.53    6.30
  16  -3 -23   -1.99    6.53
  16  -3 -21  143.76   11.66
 -16   3  21   71.07    9.68
 -16   3  19    9.06    6.45
  16  -3 -19   25.70    7.88
 -16   3  17   12.91    6.45
 -16  -3  17    9.62   14.81
 -16  -3  15   85.28   19.48
 -16   3  15   44.05    7.02
 -16  -3  15   54.13   10.19
 -16  -3  13  365.78   12.07
  16  -3 -13  337.03   11.40
  16   3 -13  337.03   13.14
  16   3 -11 1356.84   18.77
  16  -3 -11  646.87   15.05
 -16  -3   9  482.92    9.21
  16   3  -9  534.79    8.72
 -16   3   9  416.06   11.07
  16  -3  -9  439.32   11.35
 -16  -3   9  459.62    7.86
  16   3  -9  434.66    7.01
  16  -3  -7   60.01    4.63
 -16  -3   7   49.77    2.05
  16  -3  -5    5.49    3.19
 -16   3   5    2.43    2.79
 -16   3   5   10.78    1.08
 -16  -3   5   14.53    2.56
  16  -3  -5   12.35    1.03
  16  -3  -3   94.19    2.83
 -16   3   3   69.03    2.21
 -16   3   1   28.52    7.06
  16   3  -1   21.30    2.54
  16   3   1  151.42    4.43
 -16  -3  -1  119.22    4.41
  16   3   3  220.79    6.21
 -16  -3  -3  229.26    6.29
 -16  -3  -5   20.59    4.14
  16   3   5   33.71    4.27
 -16  -3  -7  350.40    9.53
  16   3   7  447.30   10.39
  16   3   9   10.61    7.67
 -16  -3  -9   17.65    7.45
 -16  -3 -11  -11.93    7.73
  16  -4 -30    1.83    5.79
  16  -4 -28    7.25    6.74
 -16   4  28    5.22    6.51
 -16   4  26   -5.25    4.97
  16  -4 -26    5.87    6.14
 -16   4  24    8.70    5.52
  16  -4 -24   -2.92    4.95
  16  -4 -22   10.23    5.91
 -16   4  22   -7.48    3.91
 -16  -4  20   -1.34   13.82
 -16   4  20   11.18    6.03
 -16  -4  18   -7.49   14.16
  16   4 -18   42.21   20.58
 -16   4  18    6.25    5.30
 -16  -4  16   12.91   12.33
  16   4 -16   20.11    9.91
  16  -4 -16   24.69    5.72
 -16   4  16   16.13    5.98
  16  -4 -14   -3.54    4.20
 -16   4  14    2.07    3.84
  16   4 -14    4.16    8.37
 -16  -4  14   -0.30    8.78
 -16   4  12    1.03    3.49
  16  -4 -12    4.99    4.35
 -16  -4  12  -10.84    6.90
  16   4 -12   13.16    7.27
  16   4 -10   24.60    3.33
 -16  -4  10   27.87    4.97
 -16   4  10   12.39    3.94
  16  -4 -10    4.88    3.60
  16  -4 -10   14.97    3.17
 -16   4  10   18.63    3.52
 -16   4   8   40.75    2.97
 -16   4   8   48.59    4.77
 -16  -4   6   42.09    3.25
 -16   4   6   29.36    3.68
  16  -4  -4   10.49    4.12
 -16   4   4    5.04    4.04
 -16   4   4    6.11    1.59
 -16  -4   4    3.47    2.26
  16   4  -4   10.16    2.38
  16  -4  -4   -0.19    1.60
 -16  -4   2   31.80    2.86
  16   4  -2   28.34    2.58
  16  -4  -2   35.26    3.24
 -16   4   2   21.02    2.47
 -16  -4   0   24.59    3.04
  16   4   0   34.04    3.01
 -16   4   0   43.33    5.61
  16   4   2  127.48    4.64
 -16  -4  -2   69.16    4.03
  16  -4   2  134.29   12.11
 -16   4  -2  123.51   13.43
 -16  -4  -4   11.07    3.53
  16   4   4   11.00    3.41
 -16  -4  -6   -3.05    3.57
  16   4   6    1.25    3.42
  16   4   8   10.54    4.20
 -16  -4  -8   14.61    4.41
 -16  -4 -10   17.52    5.22
  16   4  10    7.68    5.48
 -16  -4 -12   -0.30    6.64
  16   4  12   19.70    7.21
 -16  -4 -14   29.12    8.24
  16  -5 -25   10.99    5.87
 -16   5  25   11.92    6.00
 -16   5  23    9.68    5.32
  16  -5 -23    3.67    4.82
  16   5 -23   27.81   15.47
 -16   5  21   10.09    6.26
 -16  -5  21   -3.40   12.11
  16  -5 -19   -3.96    4.22
 -16   5  19   -3.72    4.43
 -16  -5  19   23.68   14.04
  16   5 -19   14.59   12.63
  16  -5 -17   23.22    5.30
 -16   5  17   17.39    5.77
 -16  -5  17    8.95    8.14
  16   5 -17   26.67    8.51
  16  -5 -15   -2.74    5.41
 -16   5  15    3.77    4.03
  16  -5 -15   -0.45    3.51
  16   5 -15   12.11    7.31
 -16  -5  15    1.99    6.62
 -16   5  13   38.39    4.84
  16  -5 -13   58.73    4.74
 -16   5  13   67.06    5.17
 -16  -5  13   67.88    8.19
  16   5 -11  121.53    5.86
 -16  -5  11   74.80    5.97
  16  -5 -11  123.58    4.65
 -16   5  11  104.26    4.40
 -16   5  11  127.67    8.07
  16  -5 -11  124.55    7.81
  16   5  -9    3.77    3.32
 -16  -5   9    2.96    3.27
  16  -5  -9   10.91    3.09
  16  -5  -9    3.93    2.02
 -16   5   9    9.33    2.19
  16  -5  -7   10.42    1.77
 -16   5   7    8.10    2.96
  16  -5  -7    2.78    2.42
  16  -5  -5   69.70    2.42
 -16   5   5  108.27    6.57
  16  -5  -3    8.02    1.97
  16   5  -3   23.20    2.33
 -16   5   3    6.02    1.69
 -16  -5   3   20.88    2.59
 -16   5   3   23.82    4.21
  16  -5  -3   11.97    3.18
  16  -5  -1   38.70    3.58
 -16   5   1   47.33    3.08
 -16  -5  -1   36.17    3.19
  16   5   1   39.41    3.17
 -16   5  -1   41.18    5.56
  16  -5   1   32.47    5.75
 -16  -5  -3    2.61    2.77
  16  -5   3  -18.78    9.99
 -16  -5  -5   14.18    3.22
  16  -5   5   28.32   11.48
 -16   5  -5   -0.75   10.20
 -16  -5  -7   33.43    4.43
  16   5   7   27.96    3.78
 -16  -5  -9   26.83    4.17
  16   5   9   38.82    4.16
 -16  -5 -11    6.79    4.06
  16   5  11   12.41    4.04
  16   5  13    9.46    5.37
 -16  -5 -13    2.66    4.69
 -16  -5 -15    6.08    5.77
  16   5  15    2.78    5.95
  16   6 -22   24.54   13.26
 -16  -6  22  -10.71   14.00
  16  -6 -22   18.48    6.45
 -16   6  22    1.81    5.93
  16   6 -20   22.59    8.23
 -16  -6  20   11.75   10.15
  16  -6 -20   28.74    6.55
 -16   6  20   10.33    5.06
  16   6 -18   18.19    7.67
 -16  -6  18   -0.43    7.34
  16  -6 -18    5.92    4.86
 -16   6  18   12.66    5.34
  16  -6 -18    4.06    3.85
 -16   6  18    7.71    4.12
 -16   6  16    9.80    3.92
  16   6 -16   10.06    6.46
 -16  -6  16   -0.35    5.71
  16  -6 -16    6.45    3.88
 -16   6  16    8.44    4.02
  16  -6 -16    8.63    3.80
  16  -6 -14   14.30    3.83
 -16   6  14   18.04    3.80
 -16   6  14   16.77    3.17
  16  -6 -14   12.48    2.94
 -16   6  12    9.07    3.11
  16  -6 -12    5.24    3.09
 -16  -6  12    4.35    3.80
 -16   6  12    7.97    2.45
  16  -6 -10   11.83    3.10
 -16   6  10    7.64    2.93
  16  -6 -10    8.60    2.00
 -16   6  10   12.61    2.01
 -16  -6  10    8.87    3.09
  16   6 -10    3.56    2.82
  16  -6  -8   17.69    1.96
  16  -6  -8    8.85    2.74
 -16   6   8    8.88    2.86
 -16   6   8   13.60    1.87
  16   6  -8   21.47    2.60
 -16  -6   8   22.35    3.11
 -16  -6   6    5.07    2.23
  16   6  -6    7.75    2.08
 -16   6   6   11.39    1.41
  16  -6  -6    1.34    1.36
 -16  -6   6    7.46    0.83
  16  -6  -6    4.14    2.15
 -16   6   6   11.42    2.76
  16   6  -4   18.31    3.52
  16  -6  -4   14.42    1.85
 -16   6   4   12.21    1.47
 -16  -6   4   13.40    2.25
  16   6  -4    8.18    1.86
  16  -6  -4    9.17    3.41
 -16   6   4   14.05    3.23
  16   6  -2    2.39    1.71
 -16  -6   2    4.49    1.86
 -16   6   2    3.00    2.16
  16  -6  -2    3.07    1.99
 -16   6   2    1.24    1.53
 -16  -6   2    6.55    4.73
  16  -6   0    2.94    2.79
 -16   6   0    2.69    2.16
  16   6   0    8.78    1.94
 -16  -6   0    5.42    1.99
 -16   6  -2   25.06    4.59
  16  -6   2   24.12    5.41
 -16  -6  -4    6.58    2.75
  16   6   4    4.53    2.11
  16  -6   4   10.62    6.44
 -16   6  -4    0.73    5.08
 -16  -6  -6    0.15    2.58
  16   6   6    4.22    2.44
 -16   6  -6    0.44    9.07
  16  -6   6   21.66   11.52
  16   6   8   14.33    3.26
 -16  -6  -8   12.40    3.60
 -16   6  -8   11.62    9.94
  16   6  10   12.17    3.37
 -16  -6 -10   10.20    3.40
 -16  -6 -12    5.35    3.42
  16   6  12   10.88    3.36
  16  -7 -13   -1.88    2.49
 -16   7  13   13.40    3.49
  16   7 -13    1.87    3.01
 -16  -7  13    1.97    3.75
 -16   7  13   12.18    2.65
  16  -7 -13   10.47    2.45
 -16   7  11   10.14    3.05
  16  -7 -11    7.51    2.17
 -16   7  11    1.43    1.76
 -16  -7  11   -0.58    2.89
  16   7 -11    3.72    2.65
  16  -7  -9    4.25    1.60
  16  -7  -9    0.72    2.09
 -16   7   9    2.52    2.13
 -16   7   9    5.63    1.53
  16   7  -9    6.23    2.14
 -16  -7   9    6.60    2.70
  16   7  -7   -0.27    1.71
 -16   7   7    3.88    1.32
 -16   7   7   -1.04    1.93
  16  -7  -7    3.32    2.15
  16   7  -7    1.90    0.85
 -16  -7   7    2.50    0.78
 -16  -7   7    0.93    2.04
 -16  -7   5    8.15    2.23
  16   7  -5   13.46    2.05
  16  -7  -5    3.98    1.34
 -16   7   5    9.18    1.35
 -16  -7   5    9.05    1.53
  16  -7  -5    3.75    2.22
 -16   7   5    4.40    1.88
  16   7  -5   13.83    2.25
  16  -7  -3    4.28    2.43
 -16   7   3    2.46    2.53
 -16   7   3    3.81    1.48
  16  -7  -3   -0.51    1.44
 -16  -7   3    5.50    1.96
  16   7  -3    4.81    1.61
 -16  -7   3    9.49    2.36
 -16  -7   1    1.21    1.86
  16   7  -1    2.25    1.48
  16  -7  -1    5.80    2.10
 -16   7   1   -1.10    1.64
  16   7  -1   -1.51    3.14
 -16  -7   1    8.05    3.15
  16   7   1   12.10    2.00
 -16  -7  -1   12.12    2.28
 -16   7  -1    0.12    2.16
  16  -7   1    4.07    2.83
  16   7   1   11.08    5.08
 -16  -7  -1    2.67    4.60
 -16  -7  -3    0.57    2.14
  16   7   3    5.58    2.03
  16  -7   3   10.93    4.84
 -16   7  -3    5.91    3.47
 -16  -7  -3   -1.05    5.93
  17   0 -33   -2.41   10.49
 -17   0  31    8.33   11.78
  17   0 -31   -5.97   11.26
 -17   0  29    1.17   11.72
  17   0 -29    7.26   10.98
 -17   0  27   11.69   11.56
  17   0 -27   21.95   11.46
  17   0 -25    6.29    8.61
 -17   0  25   16.40   10.25
  17   0 -23  -10.71    7.75
 -17   0  23   -2.20    9.48
  17   0 -21   -4.35    6.59
 -17   0  21   54.61    9.63
  17   0 -19   10.29    6.52
 -17   0  19   50.92    7.69
  17   0 -17   -1.24    6.13
 -17   0  17    0.84    6.02
  17   0 -15   41.44    8.21
 -17   0  15   14.11    5.96
  17   0 -13   84.61    6.75
 -17   0  13    3.81    4.59
  17   0 -11   55.14    4.58
 -17   0  11    8.55    3.00
 -17   0   9  -10.74    9.39
  17   0  -9   -0.38    9.95
  17   0  -7    2.12    1.97
 -17   0   7    3.98    2.18
 -17   0   7   -2.38    4.29
  17   0  -7    0.08    4.00
  17   0  -5   24.94    1.63
 -17   0   5   12.01    1.48
 -17   0   3   16.89    1.74
  17   0  -3    4.51    1.60
 -17   0   1    3.38    2.37
  17   0  -1   46.53    2.97
 -17   0  -1   37.05    5.31
  17  -1 -34   19.47   11.31
 -17   1  34   23.99   13.01
 -17   1  32   -6.43   10.30
  17  -1 -32   -1.15    9.94
  17  -1 -30   25.28   10.74
 -17   1  30   -5.63   10.32
  17  -1 -28    3.67    9.31
 -17   1  28    5.91    9.81
  17   1 -28   35.98   13.26
 -17  -1  26   13.42   13.28
  17  -1 -26   42.31   10.35
  17   1 -26   52.36   13.36
 -17   1  26   56.82   11.95
  17  -1 -24   20.00    9.21
 -17   1  24   35.20   10.03
  17   1 -24   29.41   11.16
  17   1 -22    1.95    9.24
 -17   1  22   41.03    9.04
 -17   1  20   10.54    6.64
  17   1 -20   29.23    8.44
 -17  -1  20   14.82    9.30
  17  -1 -20    4.67    7.43
  17  -1 -18  208.55   12.43
 -17  -1  18  259.55   13.04
 -17  -1  16   25.26    5.80
  17   1 -16   21.79    6.03
  17  -1 -14  159.78    9.19
  17   1 -14  150.47    8.60
 -17   1  14  135.00    8.76
 -17   1  12  497.29   12.29
  17  -1 -12  526.67   12.24
  17  -1 -10  210.47    7.98
 -17   1  10  220.73    8.20
 -17  -1  10  225.70    6.68
  17   1 -10  227.03    6.95
 -17  -1   8   42.81    5.27
  17   1  -8  140.94    5.63
  17   1  -6   -1.63    1.89
  17  -1  -6    5.31    3.25
 -17   1   6   -5.82    5.95
 -17   1   6    4.04    2.73
  17   1  -6    1.45    2.21
  17  -1  -6    8.30    3.00
  17   1  -4   40.58    1.92
 -17  -1   4   18.17    1.68
 -17  -1   2   67.39    2.88
  17   1  -2   68.32    2.72
 -17  -1   0   30.51    3.25
  17   1   0   17.83    2.91
  17   1   2   31.97    4.25
 -17  -1  -2   31.24    4.23
 -17  -1  -4  724.36   13.26
  17  -2 -33   12.66    9.42
 -17   2  33    9.03    9.82
  17  -2 -31    1.05    7.95
 -17   2  31   -2.28    8.53
 -17   2  29   39.90   10.73
  17  -2 -29   32.48    8.85
  17  -2 -27   36.06    8.89
 -17   2  27   14.89    8.26
  17  -2 -25   18.58    7.88
 -17   2  25   19.18    8.79
  17   2 -23   17.14   10.96
 -17   2  23  115.44   10.93
  17   2 -21   68.98   11.77
 -17   2  21   82.16   10.51
  17  -2 -21  107.92   10.88
  17   2 -19   12.57    8.85
 -17  -2  19    0.58    9.20
 -17   2  19   -0.54    6.66
  17  -2 -19    6.37    7.39
  17   2 -17   13.65    6.57
 -17   2  17   15.95    6.80
  17  -2 -17   21.15    7.23
 -17  -2  15    2.24   14.61
  17   2 -15    5.75   15.79
  17  -2 -15    8.28    5.02
 -17   2  15    0.43    4.85
 -17  -2  15    5.28    5.58
  17  -2 -13   34.21    4.86
 -17  -2  13   11.50   15.27
  17   2 -13   26.53   15.02
 -17   2  13   29.36    5.05
  17  -2 -11   12.20    3.90
 -17   2  11    1.92    3.20
 -17  -2  11    3.45    3.25
  17   2 -11    3.36    6.93
 -17  -2  11    0.40    6.73
 -17  -2   9   11.77    5.05
  17   2  -9   15.51    4.23
  17  -2  -9    4.96    2.85
 -17  -2   9    0.25    1.92
 -17   2   9    7.71    2.94
 -17  -2   7  101.07    3.18
  17  -2  -7  113.02    5.43
  17  -2  -5  433.99    1.68
  17   2  -5  527.25    6.11
 -17  -2   3   29.41    2.12
  17   2  -3   22.94    1.96
 -17  -2   1  570.04    6.73
  17   2  -1  283.92    5.15
 -17  -2  -1  195.11    5.04
  17   2   1  197.53    5.27
 -17  -2  -3  572.98    8.83
  17   2   3  616.67    9.01
  17   2   5  504.80   11.14
 -17  -2  -5  505.68   10.04
 -17  -2  -7   23.34    7.55
  17   2   7   31.67    7.57
 -17   3  32   -3.49    7.97
  17  -3 -32   -1.06    7.78
  17  -3 -30    9.32    7.28
 -17   3  30    1.03    8.02
  17  -3 -28   14.68    7.11
 -17   3  28   -0.87    6.52
  17  -3 -26    9.78    6.40
 -17   3  26   13.72    6.90
 -17   3  24   28.24    7.40
  17  -3 -24   44.01    8.39
  17  -3 -22   50.22    8.25
 -17   3  22   15.55    7.07
 -17   3  20   19.39    6.95
  17  -3 -20   28.77    8.57
  17   3 -18   -3.63    8.97
  17   3 -18   29.52   18.50
  17   3 -16   -6.39   19.94
 -17  -3  16    5.42   16.65
  17  -3 -16   -0.47    5.18
 -17   3  16    5.89    5.89
  17   3 -16    5.15    7.34
 -17  -3  14  268.42   11.31
  17   3 -14  179.22    8.49
  17  -3 -14  219.42   10.31
 -17   3  14  147.17    9.21
 -17  -3  14  144.75   11.62
  17   3 -14  254.90   13.03
 -17  -3  12   66.78    5.16
 -17   3  12   69.47    6.00
 -17  -3  10  204.28    7.53
  17   3 -10  284.71    8.04
  17  -3 -10  208.26    8.50
 -17   3  10  199.59    8.32
 -17  -3  10  227.87    6.44
  17   3 -10  282.34    6.65
  17   3  -8  736.32    9.52
  17  -3  -8  500.04    5.61
  17  -3  -6   19.74    3.66
 -17   3   6   13.47    2.92
 -17   3   4   59.07    1.59
  17  -3  -4   66.76    2.01
 -17   3   2   59.21    4.40
  17  -3  -2   52.09    5.69
 -17  -3   2   61.83    2.85
  17   3  -2   60.77    2.74
 -17  -3   0  143.19    4.42
  17   3   0  164.26    4.57
 -17  -3  -2   46.53    3.70
  17   3   2   89.31    4.41
 -17  -3  -4   20.69    4.05
  17   3   4   11.77    3.59
  17   3   6    5.90    4.58
 -17  -3  -6   10.50    4.58
  17   3   8   61.55    7.54
 -17  -3  -8  101.15    7.74
 -17  -3 -10    6.25    8.02
  17   3  10   17.33    7.66
  17  -4 -29   -4.16    5.26
 -17   4  29    3.59    5.39
  17  -4 -27    6.06    5.67
 -17   4  27    6.19    5.74
 -17   4  25   11.25    6.36
  17  -4 -25    4.53    5.89
 -17   4  23   -0.70    4.61
  17  -4 -23    1.41    5.10
  17  -4 -21    5.56    6.54
 -17   4  21   -3.32    5.18
  17   4 -21    7.84   15.58
 -17   4  19   10.61    5.76
 -17  -4  19  -23.52   12.39
  17  -4 -17    5.14    5.12
 -17   4  17    4.43    5.51
 -17  -4  17   15.30   14.54
  17   4 -17   24.12   12.27
  17  -4 -15  230.33   11.12
  17   4 -15  425.06   14.88
 -17   4  13   50.73    5.60
  17  -4 -13   57.97    6.09
  17   4 -13   60.55    6.65
 -17  -4  13   62.58    8.75
 -17  -4  11   18.23    5.08
 -17   4  11   21.20    4.95
  17  -4 -11   26.43    4.78
 -17   4  11   14.12    4.58
  17  -4 -11   27.40    4.27
  17   4 -11   22.83    3.38
 -17  -4  11   34.51    4.83
 -17  -4   9   14.80    3.94
  17   4  -9   11.76    3.73
 -17   4   9    0.54    3.08
  17  -4  -9    2.22    3.13
  17  -4  -9    6.33    2.68
 -17   4   9    4.07    2.59
  17   4  -7   13.45    2.84
 -17  -4   7   12.51    3.18
 -17   4   7    5.11    3.20
  17  -4  -7   14.30    1.92
  17  -4  -7   18.12    3.52
 -17  -4   7   12.62    1.19
 -17   4   7   15.50    2.00
 -17   4   5  134.21    2.46
  17  -4  -5  141.99    2.59
  17  -4  -5  142.53    7.79
  17  -4  -3   39.87    2.64
 -17   4   3   55.74    2.61
 -17  -4   1   20.35    2.75
  17  -4  -1   11.43    5.05
 -17   4   1   26.51    4.83
  17   4   1    9.43    2.81
 -17  -4  -1   17.32    3.20
 -17   4  -1   27.85   10.71
  17  -4   1   18.41   11.17
 -17  -4  -3   -4.18    2.86
  17   4   3    5.82    3.12
 -17  -4  -5   12.54    4.10
  17   4   5   31.13    4.04
  17   4   7    9.81    3.45
 -17  -4  -7    7.31    3.93
  17   4   9    5.91    4.41
 -17  -4  -9   -2.39    4.34
  17   4  11   22.45    6.25
 -17  -4 -11    1.09    5.66
 -17  -4 -13   27.29    7.42
  17   4  13    0.36    6.69
  17  -5 -26   -8.09    4.12
 -17   5  26   -0.82    5.18
  17  -5 -24    5.31    5.15
 -17   5  24   -3.08    4.28
  17   5 -24    7.64   14.65
 -17   5  22   18.00    6.36
 -17  -5  22    4.25   11.05
  17   5 -22   -2.45   13.66
  17  -5 -20    6.90    5.73
 -17   5  20   13.01    5.08
 -17  -5  20   38.91   16.62
  17   5 -20   53.76   14.41
 -17   5  18    3.07    4.43
  17   5 -18    8.04    8.17
 -17  -5  18    7.51    8.58
 -17  -5  16   15.06    7.71
  17  -5 -16   -6.65    5.90
 -17   5  16   20.35    4.99
  17  -5 -16   18.05    4.78
  17  -5 -14   51.11    5.78
 -17   5  14   48.60    5.37
 -17   5  14   28.58    5.14
  17  -5 -14   24.33    4.92
 -17  -5  14   50.59    7.85
  17   5 -14   55.48    7.73
  17  -5 -12  105.09    4.52
  17  -5 -12   71.91    6.56
 -17  -5  10   33.16    4.09
  17  -5 -10   24.77    4.12
 -17   5  10   11.62    3.58
 -17   5  10   26.48    3.01
 -17  -5   8   -2.33    2.73
  17   5  -8    5.29    2.72
  17  -5  -8    6.34    2.96
 -17   5   8    4.48    2.57
  17   5  -8    2.95    0.28
  17  -5  -8    4.43    1.80
  17  -5  -6   20.66    4.10
 -17  -5   6   20.32    2.85
 -17   5   6   14.30    1.50
  17   5  -6   14.73    2.66
  17  -5  -6    9.44    1.54
 -17   5   4   14.80    1.76
  17  -5  -4   16.56    3.84
 -17  -5   4   12.77    2.28
  17  -5  -4    6.38    1.68
 -17  -5   2    1.31    2.09
  17   5  -2    2.89    1.88
  17  -5  -2   -0.08    2.28
 -17   5   2    0.07    2.02
  17   5   0    2.88    2.21
 -17  -5   0    7.76    2.41
  17  -5   0   15.84    5.21
 -17   5  -2   41.46    6.30
  17  -5   2   68.42    8.06
 -17  -5  -4    8.33    2.95
  17   5   4    1.13    2.49
  17  -5   4   22.13   10.05
 -17   5  -4   24.34   11.96
  17   5   6   45.42    4.04
 -17  -5  -6   59.09    4.43
  17   5   8    9.29    3.31
 -17  -5  -8   12.26    3.69
  17   5  10    5.35    3.37
 -17  -5 -10    7.04    3.69
 -17  -5 -12    0.99    4.33
  17   5  12    6.53    4.12
  17   5  14    4.24    5.33
 -17  -5 -14   -1.32    5.14
 -17   6  21    7.73    5.02
 -17  -6  21   31.60   12.60
  17   6 -21   33.72    8.82
 -17  -6  19   43.70    8.82
 -17   6  19   26.95    5.84
  17  -6 -19   21.19    6.21
  17   6 -17    7.78    6.15
 -17  -6  17    0.77    6.46
 -17   6  17   11.34    4.62
  17  -6 -17    1.60    4.69
  17  -6 -17    1.08    3.24
 -17   6  17    2.19    3.24
 -17   6  15    5.17    3.05
  17  -6 -15    6.58    3.45
  17   6 -15   12.23    5.18
 -17  -6  15   17.41    6.43
 -17   6  15    6.74    3.23
  17  -6 -15    5.48    2.98
  17  -6 -13    4.85    3.27
 -17   6  13   -0.43    2.66
 -17  -6  13   12.67    4.33
 -17   6  13   11.23    2.64
  17  -6 -13    1.72    2.34
  17  -6 -11   -0.76    2.27
 -17   6  11   -0.79    2.38
 -17  -6  11    2.25    2.81
  17   6 -11   -0.85    2.70
 -17  -6   9   30.51    3.64
  17  -6  -9   26.25    3.66
 -17   6   9   14.01    3.22
 -17   6   9   22.22    2.08
  17  -6  -7    1.51    1.94
  17   6  -7    0.74    1.85
 -17   6   7   -0.06    1.23
 -17  -6   7    0.59    1.93
 -17  -6   5    3.90    2.15
  17  -6  -5    2.31    1.29
  17   6  -5    5.51    1.74
 -17   6   5    4.31    1.17
 -17  -6   5    6.95    1.89
 -17   6   5    2.40    2.56
  17  -6  -5   12.18    3.26
 -17   6   3    0.41    2.43
  17  -6  -3    4.01    2.35
  17  -6  -3    1.20    1.59
 -17   6   3    0.80    1.31
 -17  -6   3    1.80    1.79
  17   6  -3    3.13    1.62
  17  -6  -1   26.75    2.76
 -17   6   1   24.32    2.61
 -17  -6   1   28.34    2.66
  17  -6   1   12.40    4.55
 -17   6  -1   -0.57    3.09
 -17  -6  -1    2.13    2.04
  17   6   1    4.28    1.83
  17   6   3    5.43    2.08
 -17  -6  -3   10.87    2.76
  17  -6   3    5.16    5.39
 -17   6  -3    4.67    4.69
 -17  -6  -5    3.95    2.74
  17   6   5    7.54    2.30
  17  -6   5   12.33   11.21
 -17   6  -5    3.16    6.58
 -17  -6  -7    5.34    2.99
  17   6   7    2.28    2.66
  17  -6   7   -3.43    9.32
 -17   6  -7    0.49    9.87
 -17  -6  -9   -2.96    3.21
  17   6   9    3.43    2.72
 -17   7  12   -4.68    1.87
  17  -7 -12    1.30    2.64
 -17  -7  12   -1.37    2.70
  17   7 -12    4.83    2.90
 -17   7  12    3.16    1.93
  17  -7 -10    9.11    2.70
 -17   7  10    5.06    2.49
 -17   7  10    3.35    1.55
  17  -7 -10    4.77    1.76
  17   7 -10    3.62    2.29
 -17  -7  10    0.56    2.65
  17  -7  -8    6.48    1.51
 -17   7   8   11.98    1.67
  17   7  -8   -0.28    1.74
  17  -7  -8   12.04    2.98
 -17  -7   8    2.38    2.20
  17   7  -8   11.93    1.03
 -17  -7   6    7.12    2.26
 -17   7   6    2.30    1.15
  17   7  -6    2.25    1.73
  17  -7  -6    3.52    1.39
 -17  -7   6    4.78    1.00
  17  -7  -6   -0.35    1.66
 -17   7   6    5.44    2.46
  17  -7  -4    7.03    3.14
 -17   7   4    0.37    2.28
  17  -7  -4    1.55    1.42
 -17   7   4    3.06    1.23
 -17  -7   4    3.87    1.87
 -17  -7   4    4.29    1.97
  17   7  -4    2.58    2.01
  17   7  -2    4.42    1.56
 -17  -7   2    0.68    1.62
  17  -7  -2    2.69    1.92
 -17   7   2    1.79    1.28
 -17   7   2   -0.71    1.75
  17   7  -2    3.69    3.62
 -17   7   0   -0.11    1.83
  17  -7   0   -0.13    2.27
 -17  -7   0   15.56    5.21
 -17  -7   0    2.17    1.82
  17   7   0    0.38    1.46
  18   0 -34    2.54   10.23
 -18   0  32   69.13   14.87
  18   0 -32   14.46   12.34
  18   0 -30   62.10   12.55
 -18   0  30   52.53   14.62
  18   0 -28   37.44   11.77
 -18   0  28   65.50   14.60
  18   0 -26   54.76   10.83
 -18   0  26  105.06   14.23
  18   0 -24   45.18   10.15
 -18   0  24   98.69   13.02
  18   0 -22   17.45    7.45
 -18   0  22   25.16    8.91
  18   0 -20   37.41    7.36
 -18   0  20   32.64    7.54
 -18   0  18   69.88    8.02
  18   0 -18  121.77    9.56
 -18   0  16  446.31   15.23
  18   0 -16  758.73   20.84
  18   0 -14  567.09   14.99
 -18   0  14  448.95   13.64
  18   0 -12  322.96    9.16
 -18   0  12  319.78    9.71
  18   0 -10    3.69   10.52
  18   0 -10   18.52    3.31
  18   0  -8  272.70    7.09
 -18   0   8  166.69    5.83
  18   0  -6  120.99    2.84
 -18   0   6   59.71    2.52
 -18   0   4   71.57    1.88
  18   0  -4   86.45    2.01
  18   0  -2  202.73    4.04
 -18   0   2  205.75    3.74
  18   0   0  582.93    8.65
 -18   0   0  528.05    7.84
 -18   1  33   -3.87   10.40
  18  -1 -33  -10.58    9.11
  18  -1 -31    1.06    9.56
  18   1 -31   13.74   10.08
 -18   1  31   12.69   10.19
  18  -1 -29   13.16    9.40
 -18  -1  29   13.51   11.24
 -18   1  29    3.00    8.61
  18   1 -29    5.20   11.49
 -18  -1  27  -12.32   10.82
  18   1 -27    1.84   10.46
  18  -1 -27    1.62    7.97
 -18   1  27   23.60   10.03
 -18  -1  25   35.28   12.02
  18  -1 -25   26.15    8.92
 -18   1  25   20.94    9.22
  18   1 -25   21.70   10.66
  18   1 -23  120.88   12.97
  18  -1 -23  135.16   11.50
 -18   1  23  129.47   12.13
 -18  -1  23   87.63   13.58
  18  -1 -21  328.86   15.38
 -18   1  21  230.93   13.11
 -18   1  19   38.63    7.89
  18  -1 -19   25.63    7.44
  18   1 -19   47.43    7.74
 -18  -1  19   41.34    8.28
  18  -1 -17   15.85    6.99
 -18   1  17    5.45    7.27
 -18  -1  17    6.94    5.10
  18   1 -17    6.81    5.44
  18  -1 -15   32.10    5.62
 -18   1  15   35.25    6.36
  18   1 -15   31.99    5.80
  18   1 -13    9.01    4.19
 -18  -1  13    8.08    4.27
 -18   1  13   14.72    4.11
  18   1 -13    7.83   13.32
  18  -1 -13    6.89    3.61
 -18   1  11  345.27   10.06
  18  -1 -11  412.95   11.18
  18   1 -11  376.11    8.81
  18   1  -9    5.79    5.18
 -18  -1   9    8.06    5.58
 -18  -1   7   22.94    2.74
  18  -1  -7   -0.09    6.56
 -18   1   5   96.70    1.35
  18   1  -5  120.54    2.63
 -18  -1   3   45.88    2.05
  18   1  -3   41.44    2.26
  18   1  -1  451.85    5.93
 -18  -1   1  392.14    5.53
 -18  -1  -1  125.64    4.47
  18   1   1  117.17    4.43
  18   1   3   77.16    6.46
 -18  -1  -3   36.26    5.53
  18  -2 -32    8.60    9.31
 -18   2  32    9.21    8.69
  18  -2 -30    5.70    7.83
 -18   2  30   -6.28    8.37
  18  -2 -28   -2.42    6.05
 -18   2  28    3.60    7.54
  18  -2 -26    6.38    6.50
 -18   2  26    2.28    6.63
  18   2 -24    8.10   10.87
 -18   2  24   11.44    6.48
 -18  -2  24   28.09   12.15
 -18   2  22   22.18    7.91
 -18  -2  22   -1.49   10.66
  18   2 -22   13.09    9.84
  18  -2 -20    9.99    6.89
 -18   2  20   11.85    6.82
  18   2 -20   15.66    8.31
 -18  -2  20    5.99   10.04
  18   2 -18   20.17    6.88
 -18  -2  18   39.96    8.62
  18   2 -16   11.35   17.23
  18   2 -16    5.39    4.52
 -18  -2  16    1.00    5.29
  18  -2 -16    5.43    5.49
 -18   2  16    3.72    5.26
 -18   2  14   18.90    4.95
 -18  -2  14  -25.01   13.75
 -18  -2  12   54.57    8.67
 -18  -2  12   64.07    5.36
 -18   2  10   80.28    5.35
 -18  -2  10   39.80    3.11
  18   2  -8   61.95    2.97
  18  -2  -8   37.85    3.94
  18   2  -6   38.37    2.49
 -18   2   6   42.05    4.17
  18  -2  -6   28.92    4.00
 -18  -2   4   65.70    2.46
  18   2  -4   33.80    2.15
 -18  -2   2  110.68    3.26
  18   2  -2  200.79    4.12
 -18  -2   0   46.99    3.05
  18   2   0   37.77    2.87
 -18  -2  -2   18.61    3.42
  18   2   2    2.27    3.06
 -18  -2  -4  133.23    5.90
  18   2   4  163.04    6.54
 -18  -2  -6  155.74    8.37
  18   2   6  224.01    9.57
  18  -3 -31   -5.60    6.26
 -18   3  31   21.70    8.52
  18  -3 -29    8.25    6.39
 -18   3  29    3.56    5.77
  18  -3 -27   -4.34    6.30
 -18   3  27   10.94    5.85
 -18   3  25   13.61    7.07
  18  -3 -25   12.11    6.37
  18  -3 -23   22.72    7.26
 -18   3  23   -0.67    5.08
 -18   3  21   48.34    8.12
  18  -3 -21   39.88    8.41
 -18  -3  19   42.04   11.17
  18   3 -19    6.59    8.56
  18   3 -19    5.67   18.06
 -18   3  19   38.71    8.35
  18  -3 -19   24.48    7.59
  18  -3 -17  250.77   12.96
  18   3 -17  233.13   22.86
 -18   3  15   87.78    7.94
  18   3 -15   94.90    7.22
 -18  -3  15   88.13   14.89
  18   3 -15  103.41   12.27
  18   3 -13   25.97    8.15
 -18  -3  13   10.96    4.05
  18  -3 -13   11.77    4.72
 -18   3  13    9.06    4.11
  18   3 -13   13.58    4.34
 -18  -3  13    7.13    8.31
  18   3 -11    5.46    2.86
 -18  -3  11   12.15    3.35
 -18  -3  11   16.34    6.58
  18   3 -11   16.60    5.93
 -18   3  11    1.27    3.30
  18  -3 -11    1.52    3.46
 -18  -3   9   10.70    3.50
  18  -3  -9    8.57    4.48
  18  -3  -9   13.02    3.43
 -18   3   9    9.45    3.29
 -18  -3   7    6.02    2.66
  18  -3  -7    3.38    2.52
 -18   3   7    4.68    2.55
  18  -3  -7    7.55    1.75
  18  -3  -5   10.07    1.15
 -18   3   5   15.89    0.99
 -18   3   3   88.75    3.78
 -18  -3   3   94.03    3.21
  18   3  -3   90.06    3.15
 -18  -3   1  128.47    4.10
  18   3  -1  105.52    3.91
 -18  -3  -1   10.48    2.99
  18   3   1    7.07    2.66
  18   3   3    6.70    3.28
 -18  -3  -3    8.03    3.79
 -18  -3  -5   74.58    5.32
  18   3   5   86.77    5.28
 -18  -3  -7   20.66    5.41
  18   3   7   24.22    5.46
  18   3   9    9.99    6.98
 -18  -3  -9    0.99    6.44
 -18  -3 -11   93.45    9.08
  18  -4 -28    7.88    5.79
 -18   4  28    5.54    5.48
 -18   4  26    6.20    6.00
  18  -4 -26   22.59    7.01
 -18   4  24    3.64    5.29
  18  -4 -24    7.33    5.39
  18  -4 -22   43.64    9.06
 -18   4  22    4.82    5.55
  18   4 -22   37.53   17.53
 -18   4  20   11.90    6.45
 -18  -4  20   -9.89   12.61
  18  -4 -18   50.17    7.79
 -18   4  18   35.04    6.74
 -18  -4  18   55.19   17.21
 -18   4  16    9.31    4.77
  18  -4 -16    6.46    4.54
 -18  -4  16    1.03    9.06
  18   4 -16    0.35    8.61
  18   4 -14   17.69    7.90
 -18  -4  14   16.40    7.62
  18   4 -14   13.55    5.36
 -18  -4  14   22.53    7.29
  18  -4 -14    4.88    4.03
 -18   4  14    2.49    3.47
 -18   4  12   32.08    5.02
  18  -4 -12   34.67    5.34
  18  -4 -12   22.08    6.04
 -18  -4  12   29.06    6.88
  18   4 -12   24.88    5.64
  18   4 -12   30.70    3.60
 -18  -4  12   14.29    4.51
 -18  -4  10   13.15    4.08
  18  -4 -10    8.58    3.36
 -18   4  10   12.73    3.96
  18  -4 -10   15.55    2.85
 -18   4  10   15.76    3.15
 -18  -4  10   11.63    2.68
  18   4  -8  703.65    9.37
  18  -4  -8  577.97    5.66
  18   4  -6  260.26    5.76
 -18  -4   6  247.96    5.64
  18  -4  -6  233.97    9.29
 -18   4   6  211.85    8.77
  18  -4  -6  237.61    3.09
 -18   4   6  287.89    3.40
  18  -4  -4    0.72    1.63
 -18   4   4    4.13    1.49
 -18  -4   4    4.08    2.35
  18   4  -4    3.02    2.13
 -18   4   4   -0.61    3.15
  18  -4  -4   -5.20    2.66
 -18  -4   2  113.71    3.79
 -18   4   2   74.49    3.76
 -18  -4   0   -0.29    2.46
 -18   4   0    4.95    5.57
  18   4   2   37.16    3.28
 -18  -4  -2   86.40    4.36
  18   4   4  119.29    5.28
 -18  -4  -4   67.30    4.60
  18   4   6    0.49    3.48
 -18  -4  -6   -2.37    3.45
  18   4   8   32.02    4.61
 -18  -4  -8   34.39    4.45
 -18  -4 -10   17.46    5.09
  18   4  10   -1.03    4.82
  18   4  12   29.41    6.92
 -18  -4 -12    4.24    5.85
 -18  -4 -14   12.86    7.63
 -18   5  25    0.79    4.76
  18   5 -25  -21.61   14.55
  18  -5 -23   15.99    6.76
 -18   5  23    6.33    5.48
 -18  -5  23  -11.86   10.25
  18   5 -23    2.35   13.68
 -18   5  21   -0.71    3.55
  18  -5 -21    0.70    4.95
  18   5 -21   -2.53   15.21
 -18  -5  21  -23.92   13.72
 -18   5  19   -1.29    3.92
 -18  -5  19   -0.58   10.48
  18   5 -19   -7.70    7.77
  18  -5 -17   -0.52    4.23
 -18   5  17    2.58    3.47
  18   5 -17   26.38    7.68
 -18  -5  17   11.85    7.51
 -18   5  15   20.59    4.48
  18  -5 -15   24.35    4.58
  18  -5 -15   12.36    5.53
  18  -5 -13   44.68    5.59
 -18   5  13   39.97    5.28
  18  -5 -13   38.41    3.98
  18   5 -13   43.75    5.37
  18   5 -11   26.83    3.74
 -18  -5  11   30.50    4.19
 -18   5   9   23.72    2.15
  18  -5  -9   22.76    2.18
  18  -5  -9   22.46    4.04
 -18   5   9   16.55    3.37
 -18  -5   9   21.03    1.78
 -18  -5   9   16.44    3.62
  18   5  -7   45.06    3.21
  18  -5  -7   37.98    3.93
 -18   5   7   34.19    4.05
  18  -5  -7   45.94    2.05
 -18   5   7   46.33    2.12
  18   5  -5   19.53    2.19
  18  -5  -5   -0.39    3.25
 -18   5   5   20.07    3.75
  18  -5  -5   11.05    1.66
 -18   5   5    8.02    1.30
 -18   5   3    2.26    1.65
  18  -5  -3    2.04    2.09
  18   5  -3    8.02    2.09
 -18  -5   3    9.98    2.08
 -18   5   3    4.83    2.60
 -18   5   1   27.76    3.36
  18  -5  -1   58.44    4.81
  18   5   1   10.18    2.51
 -18  -5  -1    6.63    2.42
 -18   5  -1   10.45    5.02
 -18  -5  -3   14.07    2.99
  18   5   3   14.75    2.53
 -18   5  -3   -6.01   10.09
  18  -5   3   16.54    9.78
 -18  -5  -5   24.99    3.46
  18   5   5   92.59    4.72
 -18  -5  -7    9.96    3.80
  18   5   7   16.25    3.22
 -18  -5  -9    5.56    3.55
  18   5   9    5.24    3.20
 -18  -5 -11   -4.30    3.41
  18   5  11   23.48    4.16
  18   5  13    4.56    4.75
 -18  -5 -13   -1.64    4.29
 -18  -5 -15    5.73    5.75
  18   5  15   15.54    6.28
  18  -6 -20   16.20    5.34
 -18   6  20   10.57    4.78
  18   6 -20   29.44    8.56
 -18  -6  20    2.28    7.31
  18   6 -18   27.05    6.84
 -18  -6  18   18.55    7.57
  18  -6 -18   10.31    5.37
 -18   6  18   23.46    5.34
  18  -6 -18    5.69    3.86
 -18   6  18    7.43    3.96
  18  -6 -16   25.68    4.68
 -18   6  16   11.68    3.89
 -18  -6  16   16.82    6.50
  18   6 -16   27.88    6.66
  18  -6 -16   19.65    3.81
 -18   6  16   24.21    4.33
 -18  -6  14   17.42    5.35
  18  -6 -14   20.83    3.19
 -18   6  14   31.00    3.29
 -18   6  14   34.11    5.05
  18  -6 -14   24.90    4.41
 -18   6  12    3.45    2.92
  18  -6 -12    2.01    2.69
  18   6 -12    6.09    2.90
 -18  -6  12    1.10    3.22
 -18   6  12    1.90    1.95
  18  -6 -12    2.66    2.30
  18  -6 -10    1.74    2.28
 -18   6  10    4.26    2.49
  18  -6 -10    4.88    1.85
 -18   6  10    8.86    1.77
  18   6 -10    5.17    2.73
 -18  -6  10    9.48    3.11
  18  -6  -8   14.58    1.63
 -18   6   8   12.66    1.66
 -18   6   8   21.99    3.54
  18   6  -8   19.63    0.83
  18  -6  -8   13.14    3.06
 -18  -6   8   19.12    2.71
 -18  -6   6   13.62    2.46
 -18   6   6    8.45    1.29
  18   6  -6   10.07    2.15
  18  -6  -6    5.48    1.32
 -18   6   6    1.98    1.86
  18  -6  -6    9.03    3.00
 -18  -6   4    5.15    1.90
 -18   6   4    4.44    1.42
  18   6  -4    2.77    1.59
  18  -6  -4    0.20    1.38
  18  -6  -4   -0.79    2.54
 -18   6   4    8.70    3.16
 -18   6   2    4.82    1.86
  18  -6  -2    5.20    2.03
 -18  -6   2   10.81    2.13
  18  -6   0    1.27    3.18
 -18   6   0    0.46    2.31
 -18  -6   0    4.84    2.01
  18   6   0    3.26    1.72
 -18   6  -2   -1.43    4.03
 -18  -6  -2    1.31    2.18
  18   6   2    5.71    2.00
  18  -6   2    0.67    4.88
 -18  -6  -4   10.34    2.75
  18   6   4    7.88    2.30
 -18   6  -4    4.91    5.47
  18  -6   4   -3.26    8.60
 -18  -6  -6   15.85    2.99
  18   6   6   12.12    2.93
  18  -6   6    9.91    9.50
 -18   6  -6   20.68   11.71
  18   6   8   22.33    3.32
 -18  -6  -8   16.83    3.59
  18  -7  -9    1.99    1.49
 -18   7   9   -0.28    1.39
  18  -7  -9   -0.75    1.45
 -18   7   9    2.90    2.15
  18   7  -9    0.28    1.69
 -18  -7   9    1.30    2.31
  18   7  -9    1.96    0.71
  18  -7  -7    2.76    1.36
  18   7  -7    6.18    1.89
 -18   7   7    4.56    1.26
 -18  -7   7    3.58    1.98
 -18   7   7    6.49    2.46
 -18  -7   7    0.38    0.64
  18   7  -7    8.18    1.34
  18  -7  -7    7.51    2.34
 -18   7   5   10.66    3.05
  18  -7  -5    1.22    2.36
  18  -7  -5    2.04    1.50
 -18  -7   5    5.08    2.17
  18   7  -5    4.79    1.61
 -18   7   5    1.14    1.10
 -18  -7   5   -0.98    1.44
  18   7  -5    3.16    1.94
 -18   7   3    5.92    1.43
 -18  -7   3    1.21    1.86
  18   7  -3    1.91    1.45
  18  -7  -3   -0.18    1.46
  18   7  -3    7.17    3.98
 -18  -7   3    1.05    2.84
 -18   7   3   -0.95    2.02
  18  -7  -3    3.80    2.04
 -18   7   1    3.74    1.81
  18  -7  -1    0.12    2.05
 -18  -7   1   -0.35    4.50
 -19   0  33   -1.32   11.00
  19   0 -33   10.67   10.13
 -19   0  31   -4.71   10.06
  19   0 -31   12.73    9.18
  19   0 -29   11.32    9.14
 -19   0  29  -11.36   10.01
 -19   0  27    5.32   10.07
  19   0 -27   35.74   10.48
  19   0 -25    7.74    7.99
 -19   0  25   17.72    9.47
  19   0 -23   16.73    7.72
 -19   0  23    2.49    7.84
  19   0 -21   24.88    7.64
 -19   0  21   13.99    7.45
 -19   0  19    3.76    6.32
  19   0 -19    2.76    5.99
  19   0 -17   67.66    8.95
 -19   0  17   -7.40    5.67
  19   0 -15   -5.92    4.49
 -19   0  15    0.75    4.53
  19   0 -13    6.46    3.48
 -19   0  13    4.09    3.49
  19   0 -11    8.60    3.56
 -19   0  11    7.31    3.02
 -19   0   9    2.25    7.77
  19   0  -9    4.65    5.88
 -19   0   9    1.53    2.21
  19   0  -9    3.15    2.52
 -19   0   7    2.18    2.43
  19   0  -7    0.57    2.40
 -19   0   7    1.93    2.49
  19   0  -7    2.11    2.05
 -19   0   5    5.05    1.21
  19   0  -5   37.44    1.55
 -19   0   3   11.25    1.68
  19   0  -3   32.71    2.04
 -19   0   1   24.44    2.58
  19   0  -1   37.36    3.06
 -19   0  -1   54.71    5.83
 -19   1  34   11.68   11.68
  19  -1 -34   -7.19    8.39
  19  -1 -32   28.41   10.58
  19   1 -32   21.19   11.69
 -19   1  32   22.37   10.79
 -19   1  30   -1.04    8.68
 -19  -1  30   23.09   11.11
  19  -1 -30   13.49    8.94
  19   1 -30    5.45   10.68
  19   1 -28   11.10    9.39
  19  -1 -28   16.69    8.75
 -19  -1  28    6.37   10.83
 -19   1  28    9.20    8.92
 -19  -1  26   21.16   10.87
  19  -1 -26    2.12    6.65
  19   1 -26    3.28    9.35
 -19   1  26    9.22    8.45
  19   1 -24    6.27    8.95
  19  -1 -24   18.92    7.60
 -19   1  24   17.38    8.14
 -19  -1  24    8.91    9.79
 -19   1  22    5.50    6.27
  19   1 -22   28.79    8.00
 -19  -1  22   10.04    9.24
  19  -1 -22    5.14    6.90
 -19   1  20    2.10    6.16
  19  -1 -20   -1.58    6.34
  19   1 -20    8.18    5.99
 -19  -1  20   12.24    7.38
  19  -1 -18   15.38    7.10
 -19   1  18    0.55    6.70
 -19  -1  18   15.58    5.96
  19   1 -18   -2.82    5.41
  19  -1 -16    5.99    4.90
 -19   1  16   -0.43    4.79
  19   1 -16   10.04    5.03
  19  -1 -14   21.05    4.50
 -19   1  14    9.87    4.20
  19   1 -14   17.08    4.78
 -19  -1  14   21.09    4.82
  19   1 -12   -3.99   14.19
 -19  -1  12  -16.46   13.39
  19   1 -10  267.09    7.20
 -19   1  10  209.83    7.49
  19  -1 -10  201.01    7.38
 -19  -1  10  243.51    7.06
  19  -1  -8  405.58    9.25
 -19   1   8  493.84   10.12
  19  -1  -6   17.45    3.79
 -19   1   6    7.82    1.82
 -19  -1   6   10.49    1.77
  19  -1  -6    7.80    1.35
  19   1  -4   48.76    2.07
  19  -1  -4   51.10    1.70
 -19  -1   2   77.96    2.96
  19   1  -2   78.60    3.04
 -19  -1   0  309.33    5.99
  19   1   0  249.93    5.40
 -19  -1  -2  143.40    5.69
  19   1   2  169.30    6.15
  19   1   4   54.60    7.25
 -19  -1  -4   38.60    7.08
 -19   2  33   -8.22    6.54
  19  -2 -33   29.60   10.29
  19  -2 -31   -3.83    6.57
 -19   2  31    8.58    8.72
  19  -2 -29    5.80    6.08
 -19   2  29   -1.82    6.61
  19  -2 -27   10.93    7.06
  19   2 -27   -0.89    9.81
 -19   2  27    5.46    6.84
  19  -2 -25   28.25    7.89
 -19   2  25   28.79    7.46
  19   2 -25   16.48    9.75
 -19  -2  25   15.63   11.62
  19  -2 -23   46.14    8.57
 -19  -2  23   37.00   11.27
  19   2 -23   16.41    9.07
 -19   2  23   28.20    7.82
  19  -2 -21    2.88    6.60
 -19   2  21   12.40    7.13
  19   2 -21   21.32    8.77
 -19  -2  21    4.93    9.30
 -19   2  19   97.74   11.42
 -19  -2  19  110.32   10.42
  19   2 -19  102.69    9.17
  19  -2 -17  233.33   12.40
 -19   2  17  178.61   11.09
  19   2 -17  187.87    9.34
  19  -2 -15  239.62   10.89
 -19   2  15  163.05    9.26
  19   2 -15  101.04   18.47
 -19  -2  15  174.89    8.88
  19   2 -15  234.02    9.75
  19   2 -13   64.75    9.36
 -19  -2  13   32.92    8.92
 -19  -2  11   -1.79    6.00
  19   2 -11    5.83    6.15
 -19   2  11    5.86    3.15
  19  -2 -11    6.22    3.39
 -19  -2   9   14.77    3.72
  19  -2  -9    3.74    2.83
  19   2  -9    4.48    1.74
 -19   2   9    3.87    2.79
 -19  -2   9   12.74    2.04
 -19  -2   7   63.73    3.22
  19   2  -7   58.99    2.92
  19   2  -7   47.29    2.90
  19  -2  -7   57.46    4.76
 -19   2   7   59.40    4.47
 -19   2   5    6.40    0.17
  19  -2  -5   35.49    1.44
  19   2  -3    7.70    1.97
 -19  -2   3   12.36    1.90
 -19  -2   1  514.21    6.71
  19   2  -1  284.60    5.18
  19   2   1   25.34    3.33
 -19  -2  -1    6.57    2.94
 -19  -2  -3   78.73    4.69
  19   2   3  112.72    5.21
  19   2   5  467.31   11.12
 -19  -2  -5  348.02    9.05
 -19  -2  -7   10.34    7.82
  19   2   7   29.55    8.38
  19  -3 -30   16.90    6.86
 -19   3  30   -1.82    6.11
  19  -3 -28   -0.74    5.38
 -19   3  28    3.98    6.27
 -19   3  26   -0.71    5.63
  19  -3 -26   -5.19    4.86
  19  -3 -24   -3.46    5.50
 -19   3  24   11.85    6.04
 -19   3  22    7.02    5.78
  19  -3 -22   20.04    7.11
  19   3 -22   18.50    9.75
 -19   3  20   12.33    7.75
  19  -3 -20   24.60    6.95
  19   3 -20   11.86    7.85
 -19  -3  20   15.86   10.48
 -19   3  18   66.94    8.48
 -19  -3  18    3.15   13.89
  19   3 -16   10.47    5.09
 -19  -3  16   15.57    6.56
 -19  -3  16    2.19   16.79
  19   3 -16   20.72   13.81
  19  -3 -16    3.91    5.08
 -19   3  16    0.43    4.55
  19  -3 -14   82.90    6.86
 -19   3  14   61.29    5.81
 -19  -3  12    7.40    7.68
  19   3 -12   -2.01    7.11
  19   3 -10   34.32    4.03
 -19  -3  10   21.26    4.50
  19   3 -10   31.47    2.74
 -19  -3  10   36.08    2.62
 -19  -3   8   60.64    3.93
 -19  -3   8   44.42    2.25
  19  -3  -6  328.53   10.73
 -19   3   6  309.18    9.92
  19  -3  -4  111.13    2.89
 -19   3   4   51.73    1.86
 -19   3   2  575.42   11.37
 -19  -3   2  335.77    5.44
 -19  -3   0  229.75    5.66
  19   3   0  482.47    7.33
 -19  -3  -2   41.96    3.65
  19   3   2   88.04    4.52
 -19  -3  -4    3.45    4.01
  19   3   4    1.96    3.62
  19   3   6   25.44    4.91
 -19  -3  -6   10.53    4.45
  19   3   8   26.65    6.30
 -19  -3  -8   33.38    6.27
  19   3  10   41.64    8.00
 -19  -3 -10   34.59    7.88
 -19   4  29   -3.26    4.62
  19  -4 -29   -2.44    4.94
  19  -4 -27   23.30    7.05
 -19   4  27   -0.80    4.86
  19  -4 -25   14.40    5.97
 -19   4  25   12.02    6.15
 -19   4  23   -5.61    4.81
  19  -4 -23    4.10    5.05
 -19  -4  21   -7.84   11.47
  19   4 -21   -0.67   13.73
  19   4 -19   34.85   17.68
 -19  -4  19    3.74   16.73
  19  -4 -19    3.59    5.39
 -19   4  19   -0.61    5.37
  19   4 -17   45.14    8.28
  19   4 -17   57.75    9.95
 -19  -4  17   25.79    9.80
 -19   4  17   32.06    6.03
  19  -4 -15   21.61    4.55
 -19   4  15   20.47    4.29
 -19  -4  15   21.05    8.14
  19   4 -15    5.46    4.88
  19  -4 -13    4.71    4.08
 -19   4  13    0.74    3.49
  19   4 -13   16.80    3.32
 -19  -4  13   22.43    4.52
 -19  -4  13   13.63    6.98
  19   4 -13   21.05    6.68
 -19  -4  11   67.31    5.57
  19  -4 -11   94.96    4.62
 -19   4  11  101.47    6.75
  19  -4 -11   88.99    6.47
 -19  -4  11   75.03    4.17
 -19  -4   9   11.56    3.83
 -19   4   9   16.04    3.61
  19  -4  -9   18.57    3.94
  19  -4  -9    9.40    2.62
  19   4  -9   13.68    1.48
 -19  -4   7   63.68    3.53
  19  -4  -7   88.53    2.52
 -19   4   5   10.37    1.24
  19  -4  -5   14.82    1.68
 -19   4   5   27.75    5.28
 -19  -4   5   23.62    2.71
  19   4  -5   15.43    2.26
  19  -4  -3   13.48    2.89
 -19   4   3   12.87    2.20
  19   4  -1   14.51    2.58
 -19  -4   1   12.84    2.66
  19  -4  -1   19.53    6.14
 -19   4   1    4.98    4.96
 -19  -4  -1   19.21    3.24
  19   4   1   11.49    2.67
 -19   4  -1    7.62    9.28
 -19  -4  -3   67.11    4.15
  19   4   3  126.41    4.94
 -19  -4  -5   34.28    4.38
  19   4   5   19.93    3.63
 -19  -4  -7    9.63    3.73
  19   4   7   -5.78    3.00
  19   4   9    4.39    4.09
 -19  -4  -9    5.16    4.16
  19   4  11   35.07    6.14
 -19  -4 -11   -3.65    4.99
 -19  -4 -13    2.09    6.11
  19   4  13    2.60    6.23
 -19  -5  24   -2.37   10.69
  19   5 -24    7.16   12.86
 -19   5  24   -4.78    4.43
  19   5 -22    7.58   16.94
 -19  -5  22   -3.70   11.34
 -19   5  22    2.31    4.56
  19  -5 -22   14.56    5.35
 -19  -5  20   11.44   12.13
  19  -5 -20   10.44    5.14
 -19   5  20   20.85    5.71
  19   5 -18   16.90    7.83
 -19  -5  18   15.06    8.08
  19  -5 -18   10.33    4.64
 -19   5  18    6.49    3.79
  19  -5 -16    6.34    3.61
 -19   5  16   11.96    3.78
  19   5 -16   13.80    7.09
 -19  -5  16   -9.26    6.46
 -19   5  14   52.88    5.83
  19  -5 -14   52.11    4.96
  19   5 -12   20.81    3.86
 -19  -5  12   26.66    4.73
  19  -5 -12   28.47    3.15
 -19   5  12   28.57    3.32
  19   5 -12   29.73    3.80
 -19  -5  10  195.91    4.29
 -19  -5  10  196.82    6.34
  19   5 -10  254.01    7.14
  19   5 -10  198.26    4.23
  19  -5  -8    7.95    1.67
 -19   5   8    9.92    3.07
  19  -5  -8   11.83    3.09
 -19  -5   8   11.48    0.69
 -19   5   6   -0.33    2.31
  19  -5  -6    3.41    2.85
  19   5  -6    5.49    2.29
  19  -5  -6    3.41    1.25
  19  -5  -4   59.11    2.54
 -19   5   4   55.18    2.20
  19  -5  -4   63.26    5.04
 -19  -5   2    7.78    2.18
  19   5  -2    8.29    1.92
 -19   5   2    3.32    2.05
  19  -5  -2   13.43    2.87
  19   5   0   12.55    2.28
 -19  -5   0    9.19    2.36
  19  -5   0    9.72    5.04
 -19   5   0   16.61    4.59
 -19  -5  -2   13.88    2.75
 -19   5  -2   12.40    7.30
  19  -5   2   13.38   11.80
 -19  -5  -4    8.51    2.72
  19   5   4   10.84    2.53
 -19   5  -4   24.47    9.81
  19   5   6    6.70    2.96
 -19  -5  -6   -1.90    2.92
  19   5   8   10.96    3.30
 -19  -5  -8   12.32    3.44
  19   5  10   -2.46    3.01
 -19  -5 -10    1.64    3.41
 -19  -5 -12    4.86    4.13
  19   5  12   15.38    4.30
  19   5  14   25.14    6.02
 -19  -5 -14    1.36    5.29
 -19  -6  19   -4.81    6.83
  19   6 -19   22.67    7.25
  19  -6 -19    8.95    4.09
 -19   6  19    8.32    3.99
  19  -6 -19   -6.69    5.57
 -19  -6  17   50.74    7.37
  19  -6 -17   42.10    5.63
  19  -6 -17   26.41    4.79
 -19   6  17   49.99    5.66
 -19   6  17   20.39    4.59
 -19   6  15    4.46    3.18
  19  -6 -15    4.74    3.32
 -19  -6  15   14.27    5.60
  19   6 -15   11.09    4.66
 -19   6  15    1.72    2.81
  19  -6 -15    4.01    2.88
  19  -6 -13    6.12    3.03
 -19   6  13    3.15    2.85
  19   6 -13    7.62    2.87
 -19  -6  13    2.86    3.71
 -19   6  13    1.86    2.18
  19  -6 -13    2.92    2.41
  19  -6 -11    2.49    2.25
 -19   6  11    0.38    2.42
  19  -6 -11    3.30    1.84
 -19   6  11    4.41    1.90
 -19  -6  11    3.92    2.69
  19   6 -11    2.29    2.83
  19  -6  -9    0.14    1.42
  19  -6  -9   -1.05    1.98
 -19   6   9    6.20    2.41
  19   6  -9    1.21    1.91
 -19  -6   9    1.33    2.44
 -19  -6   7   15.28    2.48
  19  -6  -7    7.17    1.40
 -19   6   7    7.25    1.30
 -19  -6   7    8.90    1.43
  19  -6  -7   15.52    3.15
 -19   6   7   16.72    3.13
  19  -6  -5    8.20    3.47
 -19   6   5   11.27    3.08
  19  -6  -5    2.60    1.43
 -19  -6   5    6.88    2.11
 -19   6   5    2.82    1.07
  19   6  -5    3.71    1.62
 -19   6   3    9.00    2.64
  19   6  -3    4.34    1.67
 -19  -6   3    0.31    1.66
  19  -6  -3    6.06    1.87
 -19   6   3    2.65    1.29
  19   6  -1    6.00    1.71
 -19  -6   1    5.24    1.97
 -19   6   1    2.24    1.90
  19  -6  -1    5.24    2.66
 -19  -6  -1    3.22    2.07
  19  -6   1   -3.47    4.21
  19  -6   3    4.69    6.22
 -19   6  -3    1.42    5.03
 -19  -6  -5    9.73    2.85
  19   6   5   10.78    2.53
 -19   6  -5   -0.49    9.57
  19  -6   5    2.60    9.16
  19   6   7    2.77    2.71
 -19  -6  -7    5.56    2.92
 -19   6  -7   -0.48    8.38
 -20   0  34   -5.49   10.36
  20   0 -34    3.59    8.71
 -20   0  32   -3.57    9.21
  20   0 -32   -4.31    8.75
  20   0 -30    4.72    8.61
 -20   0  30   -1.06    9.11
 -20   0  28    1.83    8.57
  20   0 -28   14.57    8.74
  20   0 -26  100.19   11.36
 -20   0  26   73.82   11.52
  20   0 -24   -2.39    6.15
 -20   0  24   14.81    8.12
  20   0 -22  601.48   19.12
 -20   0  22  347.30   15.51
  20   0 -20  103.25    9.72
 -20   0  20   80.80    9.03
  20   0 -18   31.63    7.72
 -20   0  18   24.66    6.65
  20   0 -16   16.73    5.37
 -20   0  16   31.17    5.76
  20   0 -14  571.23   13.85
 -20   0  14  388.91   11.74
  20   0 -12   91.09    5.60
 -20   0  12  116.80    6.11
  20   0 -10   -3.12    9.19
 -20   0  10    7.52   10.97
 -20   0  10   10.28    2.76
 -20   0   8    7.37    4.05
  20   0  -8   25.66    3.65
 -20   0   6   52.98    3.66
 -20   0   6   64.90    2.02
 -20   0   4  561.02    4.43
  20   0  -4  652.27    4.99
  20   0  -2   41.69    2.80
 -20   0   2   45.81    2.87
  20   0   0   48.37    4.85
 -20   0   0   42.64    4.39
  20  -1 -33    1.08    8.34
 -20   1  33   23.08   11.26
  20   1 -33   22.50   11.23
 -20   1  31   -9.55    7.43
  20   1 -31   -3.30    9.65
 -20  -1  31    8.17   11.13
  20  -1 -31    3.94    6.75
  20  -1 -29   21.17    9.08
 -20   1  29   22.26    9.41
  20   1 -29    6.60    9.19
  20   1 -27   21.28    9.40
  20  -1 -27   30.57    8.23
 -20   1  27   15.73    8.29
  20  -1 -25   16.51    7.21
 -20  -1  25   32.42   10.36
 -20   1  25   35.93    8.04
  20   1 -25    8.63    8.66
 -20   1  23   -1.16    6.68
  20   1 -23   13.96    7.72
 -20  -1  23    5.81    7.69
  20  -1 -23   -1.19    6.34
 -20   1  21   51.08    8.17
  20  -1 -21   76.07    9.44
  20   1 -21   68.13    8.29
 -20  -1  21   81.89    9.40
  20   1 -19  283.04   12.74
  20  -1 -19  324.22   16.17
  20  -1 -17   28.79    6.45
 -20   1  17    6.95    5.68
  20   1 -17   16.21    5.55
  20   1 -15  521.58   14.68
  20  -1 -15  313.92   11.66
 -20  -1  13   -4.65   10.71
  20   1 -13    1.09   14.31
 -20  -1  11   -1.77    7.19
  20   1 -11    2.08    7.13
 -20  -1   9   22.31    4.73
  20   1  -9   31.91    3.99
 -20   1   7   12.76    3.33
 -20   1   7   19.73    3.21
  20  -1  -7   13.49    3.35
  20   1  -5   24.24    1.66
 -20  -1   5   24.23    1.73
 -20   1   5   16.92    0.88
 -20  -1   3   60.60    2.58
  20   1  -3   84.04    2.83
 -20  -1   1   35.78    2.71
  20   1  -1   20.30    2.87
 -20  -1  -1  146.22    4.89
  20   1   1  130.60    4.96
 -20  -1  -3   35.05    5.63
  20   1   3   18.68    6.02
  20  -2 -32   38.71    9.63
 -20   2  32   25.14    9.65
  20  -2 -30   -4.25    5.94
 -20   2  30   -4.65    5.43
  20   2 -30    8.72   10.12
  20  -2 -28   -6.70    4.65
  20   2 -28   -2.86    9.87
 -20   2  28   12.76    7.65
  20  -2 -26   27.96    7.44
 -20  -2  26   44.00   12.31
 -20   2  26   13.58    6.79
  20   2 -26    8.12    9.07
  20   2 -24   10.57    8.54
 -20  -2  24   41.71   11.30
  20  -2 -22   38.41    8.27
 -20   2  22   15.38    7.04
 -20  -2  22    4.39    8.47
  20   2 -22   31.65    8.51
  20  -2 -20   98.21   10.89
  20   2 -20  106.50    9.27
 -20   2  20   98.02   11.24
 -20  -2  20   88.47   10.04
  20   2 -18   85.40    7.29
 -20   2  18   74.43    8.71
 -20  -2  16    0.43   13.72
  20   2 -16   35.43   14.94
 -20  -2  14    7.79   13.17
  20  -2 -14   23.74    4.72
  20   2 -12  530.78   12.20
  20  -2 -12  438.14   12.60
 -20  -2  10   82.56    3.99
  20  -2 -10   84.27    5.39
 -20   2  10   64.23    4.74
  20   2 -10   69.32    3.70
 -20  -2  10   88.60    5.78
  20  -2  -8   10.53    2.75
 -20  -2   8   12.32    2.03
  20   2  -8   10.72    2.23
 -20   2   8   13.87    3.07
  20  -2  -6   64.13    5.54
 -20  -2   6  106.07    3.40
  20   2  -4  325.47    4.74
 -20  -2   4  372.41    5.00
  20   2  -2  102.22    3.52
 -20  -2   2  135.16    3.71
  20   2   0   57.61    3.33
 -20  -2   0   56.61    3.35
 -20  -2  -2    9.20    3.40
  20   2   2   -0.11    3.39
 -20  -2  -4   42.85    5.10
  20   2   4   57.37    5.38
 -20  -2  -6  491.07   12.15
  20   2   6  795.15   15.22
 -20  -2  -8   12.67    8.26
  20  -3 -31   -2.59    5.33
 -20   3  31    1.88    6.31
  20  -3 -29    8.29    5.84
 -20   3  29    5.76    5.58
 -20   3  27   -0.73    5.44
  20  -3 -27   -6.13    4.66
  20  -3 -25   39.41    8.14
 -20   3  25   15.21    6.36
 -20   3  23   15.35    6.15
  20  -3 -23   34.22    7.68
 -20  -3  23   13.49   10.21
  20   3 -23   17.19    9.71
 -20   3  21    8.13    6.98
 -20  -3  21    1.29    9.49
  20   3 -21   20.35    8.23
  20  -3 -19   77.42    8.74
 -20  -3  19    5.10   13.50
  20   3 -19   85.76   16.44
 -20   3  19   53.39    7.91
 -20  -3  19   66.52    9.67
  20   3 -19   35.88    7.48
 -20  -3  17   13.42   18.39
 -20  -3  17   60.39    7.56
  20  -3 -15   17.66    4.63
 -20   3  15   18.68    4.27
 -20  -3  15   13.25    9.42
  20   3 -15   17.79    9.33
 -20  -3  15   11.33    4.36
  20   3 -13  584.57   14.26
  20  -3 -13  381.72   13.00
 -20   3  11   92.15    6.13
  20   3 -11   86.02    3.98
 -20  -3  11   93.09    4.17
 -20  -3   9   29.46    3.78
  20   3  -9   37.54    3.77
 -20  -3   9   29.24    2.22
  20   3  -9   20.27    1.96
  20  -3  -9   42.04    4.42
  20   3  -7    7.71    2.33
 -20  -3   7    0.23    2.27
  20  -3  -7   10.47    1.32
 -20   3   7    2.64    1.54
  20  -3  -7    7.56    3.53
 -20   3   7   12.18    3.49
 -20   3   5    2.23    3.03
  20  -3  -5    9.22    3.28
 -20   3   5    8.19    1.01
 -20  -3   5   12.52    2.19
  20   3  -5    9.94    2.16
  20  -3  -5    3.56    1.29
 -20   3   3   -3.20    4.50
  20  -3  -3  -12.68    7.23
  20   3  -1  409.00    6.65
 -20  -3   1  316.02    5.92
 -20  -3  -1   10.09    3.14
  20   3   1   15.48    3.24
 -20  -3  -3  303.82    7.70
  20   3   3  289.58    7.40
 -20  -3  -5  169.88    6.59
  20   3   5  212.85    7.10
 -20  -3  -7   12.63    4.66
  20   3   7   17.31    5.30
  20   3   9    4.78    6.22
 -20  -3  -9   10.56    6.44
 -20  -3 -11   -1.30    6.93
 -20   4  28   -4.94    4.28
  20  -4 -28   14.02    6.55
  20  -4 -26    7.04    5.69
 -20   4  26   -6.22    4.73
  20  -4 -24   25.46    7.35
 -20   4  24    1.44    4.45
 -20  -4  22  -15.49   11.31
  20   4 -22  -10.50   14.18
 -20   4  22   -6.90    4.60
  20   4 -20   11.81    7.67
  20   4 -20   23.75   18.60
 -20  -4  20   11.98   13.35
  20  -4 -20   16.96    5.48
 -20   4  20   14.07    5.35
  20   4 -18   12.08    6.61
 -20  -4  18   26.50    7.92
 -20   4  18    6.14    4.37
  20  -4 -18    5.65    4.65
 -20  -4  18    2.70   12.42
  20   4 -18    3.74    8.68
  20  -4 -16   36.88    5.25
 -20   4  16   33.60    5.21
 -20  -4  16   43.89    7.34
  20   4 -16   45.53    5.92
 -20  -4  16   38.00    8.80
 -20   4  14   11.80    4.24
  20  -4 -14   15.14    4.38
  20   4 -14   27.91    3.79
 -20  -4  14   32.97    4.54
 -20  -4  14   39.39    7.74
 -20   4  12   31.80    4.83
  20  -4 -12   32.61    4.60
  20  -4 -12   14.31    5.56
 -20  -4  10   54.59    4.51
 -20  -4  10   55.90    2.57
  20  -4 -10   53.74    3.08
  20  -4 -10   43.31    4.86
 -20   4  10   39.78    4.55
  20   4 -10   51.92    2.58
 -20  -4   8   94.21    2.98
 -20   4   8  133.03    6.89
  20  -4  -6   13.88    4.36
 -20   4   6    6.84    3.52
 -20  -4   6    3.32    2.54
  20   4  -6    6.49    2.53
  20  -4  -6   12.58    1.35
  20   4  -4  307.39    5.72
 -20  -4   4  272.63    5.31
 -20  -4   2   33.13    2.79
  20   4  -2   43.31    2.79
 -20   4   2   39.91    4.60
  20  -4  -2   44.87    5.52
  20   4   0   72.33    3.72
 -20  -4   0   49.40    3.61
 -20   4   0   96.90   10.87
  20  -4   0  103.38   10.35
 -20  -4  -2   11.98    2.96
  20   4   2    7.79    2.64
  20   4   4    9.23    3.13
 -20  -4  -4    6.43    3.24
  20   4   6   13.31    3.50
 -20  -4  -6   14.08    3.70
  20   4   8    8.91    3.78
 -20  -4  -8    0.37    3.37
 -20  -4 -10   23.69    4.87
  20   4  10   31.56    5.52
 -20  -4 -12   17.48    6.04
  20   4  12   10.37    5.94
 -20  -4 -14   -0.40    6.75
 -20  -5  25   -3.35   10.97
  20   5 -25   45.56   14.79
  20  -5 -25   24.60    7.23
 -20   5  25   -0.82    4.50
 -20  -5  23    5.01   10.60
 -20   5  23   19.51    6.17
  20  -5 -23    7.43    4.93
 -20  -5  21  -11.21   12.98
  20   5 -21   -0.65   11.21
 -20   5  21   -3.50    4.26
 -20  -5  19    7.79    7.37
  20  -5 -19   18.14    5.01
 -20   5  19   -0.56    3.43
  20  -5 -17   52.13    6.04
 -20   5  17   34.01    5.49
 -20  -5  17   40.13    7.81
 -20   5  15    3.79    3.40
  20   5 -15    5.20    4.61
 -20  -5  15    8.82    6.41
  20  -5 -15   10.91    5.11
 -20  -5  13   15.35    4.47
  20   5 -13   33.69    4.38
 -20   5  13   31.51    4.82
 -20   5  13   22.34    3.79
  20  -5 -13   12.93    3.11
 -20  -5  13   32.82    5.24
  20   5 -13   25.13    3.59
 -20  -5  11   79.60    4.91
  20  -5 -11   79.30    5.77
 -20   5  11   73.63    5.81
 -20   5   9   16.79    3.55
 -20   5   9   21.84    1.89
 -20  -5   9   18.24    1.13
  20   5  -9   21.71    1.10
  20  -5  -9   16.93    1.87
 -20  -5   7   -0.11    2.04
 -20   5   7    0.44    1.09
  20   5  -7    3.43    2.15
  20  -5  -7    3.22    1.19
 -20   5   7    3.83    2.29
  20  -5  -7    0.35    2.53
  20  -5  -5    4.50    1.51
 -20   5   5    7.50    1.21
 -20  -5   5   12.86    2.32
  20   5  -5   12.23    2.06
  20  -5  -5   13.46    3.84
 -20   5   5    9.16    3.67
  20  -5  -3    4.30    2.02
 -20   5   3    5.09    1.84
 -20  -5   3    4.09    2.19
  20   5  -3    2.15    1.83
  20  -5  -1    5.65    4.18
 -20  -5   1   15.81    2.41
  20   5  -1   12.88    2.12
 -20  -5  -1   11.75    2.64
  20   5   1    6.95    2.26
  20  -5   1    6.07    8.68
 -20   5  -1    9.45    5.09
 -20  -5  -3   19.51    3.07
  20   5   3   25.60    2.80
 -20   5  -3   16.34    8.45
 -20  -5  -5    3.51    2.84
  20   5   5    5.66    2.80
 -20  -5  -7   18.61    3.74
  20   5   7    7.57    2.95
 -20  -5  -9    5.72    3.48
  20   5   9    7.72    3.04
 -20  -5 -11   -3.27    3.36
  20   5  11    3.82    3.66
  20   6 -20    4.07    6.35
 -20  -6  20    2.76    7.43
  20  -6 -18   28.90    5.00
  20  -6 -18    2.22    4.63
 -20   6  18   14.44    4.19
  20   6 -18   31.22    6.80
 -20  -6  18    2.73    6.29
  20  -6 -16    6.43    3.60
 -20   6  16    1.82    2.53
 -20  -6  16    1.06    5.99
  20  -6 -16    1.31    3.39
 -20   6  16    4.27    3.42
 -20   6  14   17.11    2.69
  20  -6 -14   14.52    2.85
 -20  -6  14   18.45    4.40
  20   6 -14   19.88    3.90
  20  -6 -14   22.23    4.26
 -20   6  14   16.91    3.93
  20  -6 -12    5.97    2.05
 -20  -6  12    1.25    2.92
  20   6 -12   -1.23    2.53
  20  -6 -12    4.34    2.59
 -20   6  12    0.80    2.33
 -20  -6  10    0.33    2.57
  20   6 -10    0.30    2.10
  20  -6 -10    7.30    2.83
 -20   6  10    0.71    2.00
  20  -6 -10    6.78    1.73
  20   6 -10    0.71    0.51
  20   6  -8    2.53    1.83
  20  -6  -8    4.02    1.24
 -20   6   8    5.45    1.36
 -20   6   8    1.98    1.81
  20  -6  -8    4.73    2.23
 -20  -6   8    1.48    2.01
 -20   6   6   15.97    3.50
  20  -6  -6   18.14    3.55
 -20  -6   6   10.89    2.33
  20   6  -6   11.62    1.99
  20  -6  -6    9.88    1.36
 -20   6   6   15.59    1.28
 -20   6   4    2.63    2.81
  20  -6  -4    1.00    1.92
 -20   6   4    0.94    1.17
 -20  -6   4    0.88    1.82
  20   6  -4    4.88    1.57
  20  -6  -4   -0.28    1.36
 -20  -6   2    6.94    1.98
  20   6  -2    6.38    1.72
 -20   6   2    1.76    1.84
  20  -6  -2    6.29    2.13
  20   6   0   15.18    2.23
 -20  -6   0   15.22    2.26
  20  -6   0   11.35    4.24
 -20   6   0   15.76    3.30
 -20  -6  -2   14.74    2.71
  20  -6   2   10.18    5.50
 -20   6  -2   22.37    4.95
 -20  -6  -4    5.79    2.46
  20   6   4   12.48    2.33
 -20   6  -4   12.10    7.90
  20  -6   4    9.59   10.17
 -20  -6  -6    3.44    2.73
  20   6   6   11.13    2.90
 -20   6  -6    4.01    8.31
 -21   0  33   26.42   11.52
  21   0 -33   -2.20    8.89
  21   0 -31   -5.82    6.58
 -21   0  31    2.18    8.15
 -21   0  29  -10.42    8.42
  21   0 -29   21.76    8.88
  21   0 -27   -5.83    6.31
 -21   0  27    4.86    7.81
  21   0 -25    8.59    7.49
 -21   0  25   26.02    8.88
  21   0 -23    2.09    6.77
 -21   0  23    6.55    6.86
 -21   0  21    6.25    6.50
  21   0 -21   -8.14    6.29
  21   0 -19   -1.04    7.49
 -21   0  19    5.55    6.20
  21   0 -17  125.78    9.06
 -21   0  17   19.13    6.00
  21   0 -15    6.43    4.30
 -21   0  15    4.17    3.88
 -21   0  13    5.14    3.18
  21   0 -13    7.01    3.29
 -21   0  11   -1.98    8.86
  21   0 -11   -5.29   10.67
  21   0  -9    1.13    4.25
 -21   0   9   -4.12    4.62
 -21   0   9   -0.72    2.20
  21   0  -7    8.21    3.01
  21   0  -7    0.78    1.71
 -21   0   7    1.88    1.94
  21   0  -5    7.78    1.34
 -21   0   5    7.19    1.19
 -21   0   3    8.08    1.85
  21   0  -3    4.40    1.85
  21   0  -1   29.89    3.36
 -21   0   1    9.22    2.67
 -21   0  -1   35.26    5.83
 -21   1  32    6.49    9.80
  21   1 -32   11.94   10.41
  21  -1 -32    9.88    7.65
 -21  -1  30   40.88   11.69
  21  -1 -30   18.02    8.00
  21   1 -30   26.13   10.24
 -21   1  30    3.80    7.79
  21   1 -28   20.12    8.34
  21  -1 -28   22.86    7.49
 -21   1  28   17.71    8.09
 -21  -1  28   17.83   10.45
 -21  -1  26   89.66   12.53
 -21   1  26   27.42    8.05
 -21   1  24   25.33    6.74
  21   1 -24   32.65    7.83
 -21  -1  24    4.64    8.06
  21  -1 -24   23.60    7.45
 -21   1  22    9.78    6.51
  21  -1 -22   27.63    7.53
  21   1 -22   12.45    6.17
 -21  -1  22    4.22    6.62
  21   1 -20    2.71    6.39
 -21   1  20   17.85    7.15
 -21  -1  20    3.09    6.24
 -21  -1  18    9.04    5.81
  21  -1 -18   33.98    7.58
 -21   1  18    8.14    5.98
  21   1 -18   30.88    6.71
  21  -1 -16  221.87   10.55
 -21   1  16  196.99    9.96
  21   1 -14   13.01    3.95
 -21  -1  14   10.48    3.75
 -21  -1  14    1.04   11.50
  21   1 -14   -5.17   12.93
 -21   1  14    4.19    3.58
  21   1 -12  582.00   11.76
 -21   1  12  501.09   12.60
 -21  -1  12  510.90   11.11
  21   1 -10  393.38    8.47
 -21  -1  10  345.07    7.89
  21  -1 -10  365.44    9.68
 -21  -1   8    4.51    2.58
  21   1  -8   12.53    2.60
 -21  -1   8    5.87    2.29
  21  -1  -8    6.79    2.96
  21   1  -8    4.94    2.41
  21  -1  -8   14.10    4.42
 -21   1   8  -13.46    8.06
 -21   1   6   37.67    1.33
 -21   1   6   50.59    4.02
  21  -1  -4  246.85    3.20
  21   1  -4  192.01    3.39
  21   1  -2  121.95    3.54
 -21  -1   2  166.61    3.94
 -21  -1   0   22.79    3.43
  21   1   0   22.42    3.25
 -21  -1  -2  926.82   11.38
  21   1   2 1142.20   13.16
 -21  -1  -4   88.74    7.92
  21   1   4   83.93    7.44
  21   2 -31   14.44   10.00
  21  -2 -31   10.37    6.91
 -21   2  31    7.59    7.28
  21  -2 -29    8.35    6.21
 -21   2  29    5.71    6.26
 -21  -2  29   27.33   11.18
  21   2 -29   -3.96    8.85
  21  -2 -27   11.82    6.37
 -21   2  27   11.13    6.03
 -21  -2  27   -8.63    9.04
  21   2 -27    9.89    8.68
  21   2 -25    2.13    7.90
 -21  -2  25   22.26    9.99
 -21   2  25   17.96    7.01
  21  -2 -25    0.68    6.28
 -21  -2  23    7.25    8.54
  21   2 -23   18.09    7.79
  21   2 -21   23.72    6.80
 -21  -2  21   15.19    8.20
 -21   2  21   18.35    7.79
  21   2 -19   27.79    5.79
 -21  -2  19   16.57    6.25
 -21   2  19   36.47    7.29
 -21  -2  17   -0.96   13.59
  21   2 -17   12.84   15.72
  21   2 -15    0.85   14.80
 -21   2  15   39.70    5.10
 -21  -2  13    3.05    3.19
  21   2 -13    6.98    3.02
  21  -2 -13    1.68    4.14
 -21   2  13    8.30    4.01
  21   2 -13   18.14    7.84
 -21  -2  13    2.08    7.85
 -21  -2  11  184.45    8.36
  21   2 -11  183.21    7.68
  21   2 -11  181.98    5.93
  21  -2 -11  165.24    7.32
 -21  -2  11  193.39    6.33
 -21  -2   9  246.72    5.70
  21   2  -9  403.15    6.74
  21   2  -7   10.17    2.15
 -21   2   7    8.57    3.15
 -21  -2   5    7.88    1.90
  21   2  -5    4.08    1.67
 -21  -2   3  106.98    3.15
  21   2  -3  116.98    3.48
  21   2  -1  264.62    5.26
 -21  -2   1  198.51    4.61
  21   2   1   78.20    4.55
 -21  -2  -1   99.95    4.70
 -21  -2  -3   87.92    4.99
  21   2   3   93.78    5.36
  21   2   5  270.61    9.57
 -21  -2  -5  149.36    7.40
  21   2   7  157.19    9.58
 -21  -2  -7   26.13    8.26
  21  -3 -30   -3.13    5.20
 -21   3  30   -6.69    3.92
 -21   3  28   -3.03    4.85
  21  -3 -28    9.49    5.76
  21  -3 -26   40.74    8.32
 -21   3  26   11.99    6.13
  21   3 -26   33.71   10.21
 -21   3  24    9.69    5.45
  21  -3 -24   23.89    6.75
  21   3 -24    8.51    7.86
 -21  -3  24   15.51    9.90
 -21   3  22   36.76    8.57
 -21  -3  22   42.16   10.01
  21   3 -22   25.40    7.59
 -21  -3  20   -6.67    6.77
  21   3 -20   14.33    6.20
 -21  -3  20  -15.99   12.84
  21   3 -20    3.65   15.64
  21  -3 -20    5.43    5.70
 -21   3  20   -1.83    5.07
  21   3 -18   15.43    4.94
 -21  -3  18   27.30    6.35
  21  -3 -18   12.05    5.15
 -21   3  18    5.28    4.83
  21   3 -18   50.59   20.16
 -21  -3  18   15.79   16.06
  21  -3 -16   13.72    4.73
 -21  -3  16    7.73    4.31
  21   3 -16   16.29    4.47
  21   3 -16   -5.81    8.68
 -21  -3  16   -2.53    9.75
 -21  -3  14   60.63    6.06
 -21  -3  14   45.03    8.55
  21  -3 -12    3.46    3.60
 -21   3  12    5.06    3.35
 -21  -3  12    2.16    2.57
 -21  -3  12    9.36    6.60
  21   3 -12    7.48    5.31
  21   3 -10  190.70    4.96
 -21   3  10  181.38    7.88
 -21  -3  10  187.82    5.07
  21  -3 -10  196.66    8.31
  21   3 -10  286.92    6.86
 -21  -3  10  201.22    6.07
 -21  -3   8   42.85    3.13
  21  -3  -8   45.26    4.61
 -21   3   8   38.87    3.94
  21  -3  -8   34.80    2.05
 -21   3   8   12.45    2.75
 -21  -3   8   22.51    3.14
  21   3  -8   45.16    2.98
 -21  -3   6  294.65    5.59
  21   3  -6  296.77    5.25
 -21   3   6  356.51    2.37
 -21   3   6  283.07   11.11
  21   3  -4  137.74    3.87
 -21  -3   4  126.63    3.82
 -21   3   4  136.67    3.95
 -21  -3   2   98.10    3.69
  21   3  -2  113.66    3.94
 -21  -3   0   14.46    3.11
  21   3   0   47.04    3.34
  21   3   2  244.45    6.72
 -21  -3  -2  178.36    5.87
  21   3   4   10.61    3.72
 -21  -3  -4   -0.14    3.61
  21   3   6   10.02    4.15
 -21  -3  -6    1.97    4.05
  21   3   8   14.29    5.89
 -21  -3  -8   34.02    5.50
 -21  -3 -10   20.15    7.31
  21   3  10   18.06    6.74
  21  -4 -27   -1.61    4.34
 -21   4  25    2.99    4.78
  21  -4 -25   31.44    8.02
  21   4 -23   -3.71   13.51
 -21   4  23    5.67    5.90
  21  -4 -23    4.16    5.09
  21   4 -21    6.37    7.23
  21  -4 -21   -3.96    5.03
 -21   4  21    2.68    4.74
 -21  -4  21    1.25   11.44
  21   4 -21   37.46   18.24
  21   4 -19   45.68    7.63
 -21  -4  19   67.60    9.81
 -21  -4  19   16.59   13.76
 -21   4  19   55.54    6.63
 -21  -4  17   62.00    7.55
  21  -4 -17   49.12    5.70
 -21   4  17   34.28    5.71
  21   4 -17   58.86    9.12
 -21  -4  17   45.50    8.80
 -21   4  15   -0.40    2.88
  21  -4 -15    1.67    3.21
  21   4 -15   13.25    3.26
 -21  -4  15    7.86    3.95
 -21  -4  15   13.23    6.59
  21   4 -15   20.34    7.31
 -21  -4  13   37.47    6.31
 -21   4  13   27.28    4.68
 -21  -4  13   20.00    3.42
 -21   4  11   34.32    4.39
 -21  -4  11   15.43    3.90
  21   4 -11   25.70    3.79
  21  -4 -11   27.79    4.27
  21   4 -11   28.08    2.25
  21  -4 -11   30.65    3.37
 -21  -4  11   15.12    2.17
 -21  -4   9   28.84    1.81
  21  -4  -9   52.46    4.82
 -21   4   9   47.16    4.78
 -21  -4   9   48.78    4.03
  21  -4  -7  121.03    7.36
 -21   4   7  137.82    7.47
  21  -4  -7  115.56    2.21
  21  -4  -5   94.21    2.46
 -21   4   5   90.39    2.17
 -21  -4   3   33.03    2.80
  21   4  -3   32.18    2.58
 -21   4   3   38.31    3.29
  21  -4  -3   37.61    4.28
  21   4  -1    2.84    2.20
 -21  -4   1    2.77    2.42
 -21   4   1    7.25    7.80
  21  -4  -1   -4.73    8.00
 -21  -4  -1    7.75    2.87
  21   4   1   13.67    2.74
 -21  -4  -3   13.32    3.01
  21   4   3   31.21    3.36
 -21  -4  -5    0.17    3.08
  21   4   5   -1.79    2.61
 -21  -4  -7    6.94    3.39
  21   4   7   10.29    3.32
 -21  -4  -9   16.24    4.48
  21   4   9    3.91    3.79
  21   4  11    5.94    5.24
 -21  -4 -11   17.68    5.73
 -21  -4 -13    7.15    6.22
  21   4  13   23.33    6.82
 -21  -4 -15   -7.24    6.45
 -21  -5  24    3.72    9.61
 -21   5  24   -1.72    3.85
 -21  -5  22    9.86   14.29
  21   5 -22   12.77   12.98
  21  -5 -22   13.55    5.19
 -21   5  22   10.91    5.39
 -21  -5  20   14.02    8.92
  21  -5 -20   -0.59    3.71
 -21   5  20   -2.38    3.14
 -21   5  18    6.82    3.75
 -21  -5  18  -12.82    6.60
 -21  -5  16    3.02    6.47
  21   5 -16   21.95    6.38
  21   5 -16   18.06    4.73
  21  -5 -16    1.40    3.30
 -21   5  16    2.13    2.92
  21  -5 -14    5.74    3.69
 -21  -5  14   -1.79    4.64
  21   5 -14    3.41    3.84
 -21  -5  14   -1.95    4.03
  21   5 -14    4.31    2.79
  21   5 -12   12.49    2.41
 -21  -5  12    0.50    3.07
  21   5 -12    6.74    3.26
 -21   5  12    7.77    2.60
  21  -5 -12    7.08    2.51
 -21  -5  12    9.70    2.33
  21  -5 -12    9.71    3.05
 -21   5  12    9.60    3.24
  21  -5 -10   -1.72    2.25
 -21   5  10    2.65    2.45
  21   5 -10    3.68    0.86
  21  -5 -10    3.88    1.68
 -21   5  10    3.27    1.90
 -21  -5  10    0.91    2.83
  21  -5  -8   21.16    3.41
 -21   5   8    9.58    2.71
  21   5  -8   20.18    2.53
  21  -5  -8   13.53    1.58
 -21  -5   8   19.12    2.64
  21  -5  -6    3.35    3.43
 -21  -5   6    0.68    2.15
  21  -5  -6    2.42    1.14
  21   5  -6    1.39    1.66
 -21   5   6    0.15    0.88
 -21   5   4    1.57    2.22
 -21   5   4    0.88    1.24
  21  -5  -4    1.68    1.78
  21   5  -4    6.97    1.86
 -21  -5   4    5.36    1.92
  21  -5  -2    5.68    3.75
 -21   5   2    5.64    2.38
  21   5  -2    6.39    1.79
 -21  -5   2    5.85    1.94
 -21   5   0   -7.15    4.33
  21  -5   0   13.49    5.71
 -21  -5   0   12.56    2.57
  21  -5   2  -12.76    8.49
 -21   5  -2   -0.38    9.51
 -21  -5  -4    3.88    2.73
  21   5   4    3.81    2.41
  21   5   6   35.67    3.77
 -21  -5  -6   34.08    3.95
  21   5   8    3.02    2.75
 -21  -5  -8    0.20    3.10
  21   5  10    7.96    3.46
 -21  -5 -10   13.72    3.70
  21   6 -19   15.85    6.35
 -21  -6  19   15.09    6.95
  21  -6 -17    2.99    2.91
 -21   6  17   -2.77    2.17
 -21  -6  17    2.25    6.13
  21   6 -17    0.73    5.27
  21  -6 -17    3.94    4.32
 -21   6  15    3.41    2.84
  21  -6 -15    4.08    2.56
 -21  -6  15   13.35    4.84
  21   6 -15    7.92    3.97
  21  -6 -15    1.99    2.68
 -21   6  15    0.47    2.89
  21  -6 -13    2.24    2.33
 -21   6  13    2.20    2.10
 -21  -6  13    4.94    3.12
  21   6 -13    3.01    2.80
  21  -6 -13   10.81    3.40
 -21   6  13    7.31    2.92
  21   6 -11   10.93    2.76
 -21  -6  11    1.07    2.93
 -21   6  11    8.14    2.62
  21  -6 -11    7.13    2.83
  21  -6 -11    1.21    1.55
 -21   6  11    7.58    1.82
  21   6 -11    5.44    0.89
 -21  -6   9   11.18    2.56
 -21   6   9   -0.36    1.85
  21  -6  -9    6.21    2.70
  21  -6  -9    0.99    1.31
  21   6  -9    7.69    2.06
 -21  -6   9    2.33    0.26
 -21   6   9    6.40    1.49
 -21  -6   7    6.99    2.15
  21   6  -7    9.37    2.15
  21  -6  -7    7.33    1.24
  21  -6  -7    7.57    2.95
 -21   6   7    2.98    2.30
 -21   6   5    2.94    1.20
 -21  -6   5    0.96    1.72
  21   6  -5    0.45    1.31
  21  -6  -5    0.56    1.29
  21  -6  -5    8.15    3.30
 -21   6   5    5.54    2.83
  21   6  -3   10.02    1.84
 -21  -6   3   11.55    2.08
  21  -6  -3    3.61    1.82
 -21   6   3    3.65    1.64
  21   6  -1    9.97    1.88
 -21  -6   1    5.29    1.92
  21  -6  -1    9.90    3.46
 -21   6   1    5.33    2.48
 -21  -6  -1    4.71    2.10
 -21   6  -1    4.23    3.96
  21   6   1   13.17    2.27
  21  -6   1   13.40    5.18
 -21  -6  -3    1.41    2.46
  21   6   3    0.63    1.84
  21  -6   3   -4.24    9.45
 -21  -6  -5    6.07    2.61
  21   6   5   -0.52    2.04
  21  -6   5   -1.87    9.03
 -21   6  -5   -2.24    8.48
  22   0 -32    9.95    8.27
 -22   0  32   46.86   11.22
 -22   0  30    2.91    8.94
  22   0 -30    7.91    7.46
  22   0 -28   16.19    7.86
 -22   0  28    5.76    8.43
  22   0 -26  363.35   17.08
 -22   0  26  284.30   16.47
  22   0 -24  175.89   11.77
 -22   0  24   93.25    9.76
  22   0 -22  210.53   12.86
 -22   0  22  135.83   10.36
 -22   0  20  540.04   17.94
  22   0 -20  868.48   23.74
  22   0 -18   70.16    8.16
 -22   0  18   26.08    5.96
  22   0 -16   41.25    5.51
 -22   0  16   29.36    5.19
  22   0 -14  133.38    6.94
 -22   0  14   87.67    5.65
  22   0 -12   -7.19   10.38
 -22   0  12    8.45    2.93
  22   0 -10    5.17    5.28
 -22   0  10    8.23    5.48
 -22   0   8   20.45    2.83
  22   0  -8   31.49    2.56
 -22   0   6  834.81    5.61
  22   0  -6  736.92    4.85
  22   0  -4 1126.89    7.10
 -22   0   4  894.81    6.13
 -22   0   2 1141.59    9.11
  22   0  -2 1305.93    9.84
  22   0   0 1254.05   13.43
 -22   0   0 1087.46   11.32
 -22   1  33   -5.56    8.18
  22   1 -33   10.80   10.08
  22  -1 -33   24.24    8.86
 -22  -1  33   29.08   12.26
 -22  -1  31   -1.07    9.59
  22  -1 -31   -0.88    6.79
  22   1 -31  -11.82    8.12
 -22   1  31    0.97    6.88
  22   1 -29   -0.86    7.63
  22  -1 -29   20.41    7.13
 -22  -1  29   37.85   10.68
 -22   1  29   10.72    7.33
  22  -1 -27   60.87    8.90
 -22  -1  27   83.42   11.59
 -22   1  27   49.85    8.66
  22   1 -27   73.91   10.84
 -22   1  25    3.76    5.82
  22   1 -25   26.76    7.64
 -22  -1  25    9.52    7.90
  22  -1 -25    7.10    6.42
  22  -1 -23    7.20    6.46
 -22   1  23   12.00    6.00
  22   1 -23   21.93    5.86
 -22  -1  23    7.70    6.62
  22  -1 -21   29.04    8.91
  22   1 -21   27.64    7.04
 -22   1  21    5.74    6.21
 -22  -1  21   19.55    6.30
 -22   1  19   91.36    9.07
 -22  -1  19   97.19    8.84
  22  -1 -17  296.82   12.21
  22   1 -17  327.25   12.88
  22   1 -15   18.75   13.51
 -22  -1  15   67.93    6.01
 -22  -1  13  -25.48   12.99
  22   1 -13    6.64   11.01
  22   1 -11    2.78    5.60
 -22  -1  11    4.84    5.85
  22   1  -9  509.28    9.97
 -22   1   9  427.24    9.96
 -22   1   7   59.30    2.36
  22  -1  -7   86.52    2.14
  22   1  -5   24.27    1.94
 -22  -1   5   29.51    1.76
 -22  -1   3   29.17    2.46
  22  -1  -3   23.96    3.21
 -22   1   3   23.61    2.32
 -22  -1   1   34.83    3.08
  22   1  -1   24.85    3.28
 -22  -1  -1  366.03    6.93
  22   1   1  345.26    7.23
  22   1   3   63.39    6.93
 -22  -1  -3   28.06    5.95
  22  -2 -32    3.53    6.60
  22   2 -32   -4.39    9.25
 -22   2  32   -9.64    6.25
  22  -2 -30   25.39    6.71
 -22   2  30    6.75    5.90
  22   2 -30   10.93    9.22
 -22  -2  30    1.08   10.00
  22  -2 -28    1.44    5.66
 -22   2  28   10.80    6.48
 -22  -2  28   32.52   11.11
  22   2 -28   -0.85    7.73
  22  -2 -26   33.69    7.97
  22   2 -26   19.62    7.93
 -22  -2  26   17.16    8.95
 -22   2  26    6.44    5.90
  22  -2 -24   11.70    6.50
 -22   2  24    8.62    5.74
 -22  -2  24    3.41    7.18
  22   2 -24    6.73    6.79
  22  -2 -22    9.14    7.03
 -22   2  22   -4.95    5.43
  22   2 -22   15.08    5.82
 -22  -2  22   -1.63    6.81
  22  -2 -20   15.46    6.11
 -22   2  20    7.35    6.14
  22   2 -20   11.24    5.16
 -22  -2  20   15.67    6.00
  22   2 -18    0.52   15.85
 -22   2  18   45.56    6.70
 -22  -2  16  222.73   10.95
  22   2 -16  247.13   10.54
  22  -2 -14   25.89    4.91
  22   2 -14   17.62    3.85
 -22  -2  14   16.64    3.91
 -22  -2  14   -3.71    8.09
  22   2 -14   20.17    8.84
 -22  -2  12    0.20    7.26
  22   2 -12   -0.58    6.21
  22  -2 -12    7.76    3.82
 -22   2  12    3.72    3.51
 -22  -2  10  280.16    6.75
  22   2 -10  296.07    6.86
  22  -2 -10  280.99    9.27
 -22   2  10  311.36    9.67
  22   2 -10  350.64    6.72
 -22  -2   8   10.62    2.88
 -22   2   8   19.91    3.73
  22   2  -8    8.91    2.21
 -22  -2   8    7.17    2.73
 -22   2   6    1.50    0.57
 -22   2   6   14.06    3.30
 -22  -2   4  201.26    4.04
  22   2  -4  228.21    4.23
  22   2  -2    7.71    2.54
 -22  -2   2   10.63    2.65
  22   2   0   36.55    3.48
 -22  -2   0   25.96    3.21
 -22  -2  -2   86.60    4.93
  22   2   2  140.62    5.78
 -22  -2  -4  397.35    8.97
  22   2   4  442.19    9.75
 -22  -2  -6   15.24    6.49
  22   2   6   29.15    6.92
 -22  -2  -8   10.06    7.40
 -22   3  29    4.69    5.07
  22   3 -29   32.68   10.07
  22  -3 -29    3.26    5.47
  22  -3 -27   10.71    6.31
 -22   3  27    2.32    5.63
  22   3 -27    6.95    8.69
 -22   3  25    5.05    4.89
  22  -3 -25    4.37    5.82
 -22  -3  25   -6.74    8.34
  22   3 -25   19.20    7.98
 -22   3  23   40.38    8.54
 -22  -3  23   65.99   10.47
  22   3 -21   -0.66   16.17
 -22  -3  21    1.62    6.93
  22   3 -21    0.48    5.66
  22  -3 -21   -8.85    4.38
 -22  -3  19    5.86   12.45
  22   3 -19   46.73   18.68
  22  -3 -19   25.69    5.76
 -22   3  19   17.16    5.35
  22   3 -19    6.42    4.65
 -22  -3  19    6.36    5.06
  22  -3 -17    8.62    4.17
 -22  -3  17   -3.96   13.44
  22   3 -17    6.96   10.28
 -22   3  17   13.89    4.85
  22   3 -17   18.30    4.52
 -22  -3  17   15.13    4.24
 -22  -3  15   11.60    4.36
  22   3 -15   26.68    4.94
 -22  -3  15   13.68    8.51
  22   3 -15   24.62    7.80
 -22   3  15   12.05    4.16
 -22   3  13  113.91    7.73
 -22  -3  13   65.64    4.54
 -22  -3  11   10.31    2.32
 -22   3  11   14.15    3.40
  22  -3 -11   13.22    3.75
  22   3 -11    4.49    1.90
  22   3 -11   18.40    3.75
 -22  -3  11    8.96    4.33
 -22   3   9    5.52    3.20
  22  -3  -9    4.67    2.74
  22   3  -9    2.31    1.93
 -22  -3   9   -0.77    1.22
 -22  -3   9    1.31    3.07
  22   3  -9    9.76    2.99
  22   3  -7    7.60    2.58
 -22  -3   7    7.85    2.53
 -22   3   7    6.20    1.36
  22  -3  -7    6.52    3.76
 -22   3   7    8.66    3.42
 -22  -3   5    9.48    2.27
  22   3  -5    6.27    2.02
  22  -3  -5   11.45    2.86
 -22   3   5    2.55    1.32
 -22  -3   3  223.56    4.78
  22   3  -3  270.11    5.16
  22   3  -1    7.97    2.68
 -22  -3   1   45.42    3.68
  22   3   1  142.02    5.04
 -22  -3  -1  154.23    5.07
 -22  -3  -3   -0.98    3.71
  22   3   3   -3.06    3.16
 -22  -3  -5   39.59    4.31
  22   3   5   58.17    4.61
  22   3   7    4.86    4.74
 -22  -3  -7    8.12    4.44
  22   3   9   51.76    6.98
 -22  -3  -9   45.41    6.52
 -22  -3 -11   14.33    6.95
  22  -4 -28   39.88    8.01
 -22   4  28    9.92    5.61
 -22   4  26   -3.84    5.26
  22  -4 -26    9.65    6.57
  22   4 -24   22.31    8.17
  22   4 -24   46.91   16.20
 -22   4  24    2.61    4.34
  22  -4 -24   25.83    6.54
 -22  -4  22   14.78    8.53
  22   4 -22   -1.21    6.34
 -22  -4  22    3.92   10.86
  22   4 -22   33.98   15.62
  22  -4 -22    4.14    5.43
 -22   4  22    3.50    4.90
 -22  -4  20   19.70    7.64
  22   4 -20   27.49    6.49
  22  -4 -20    3.90    4.42
 -22   4  20    8.05    4.56
 -22  -4  20   12.05   14.39
  22   4 -20    0.64   13.20
 -22  -4  18    5.61    5.80
  22   4 -18    0.68    4.36
  22  -4 -18   10.08    4.12
 -22   4  18   -0.99    3.75
  22   4 -18    9.13    7.70
 -22  -4  18   13.81    7.69
  22  -4 -16    6.56    3.81
 -22   4  16    8.94    3.66
  22   4 -16    2.52    2.92
 -22  -4  16   11.59    4.02
 -22  -4  16    5.99    6.83
  22   4 -16    9.92    6.66
 -22  -4  14   -1.03    2.65
 -22   4  14    4.10    3.15
 -22  -4  14   -6.50    5.82
  22   4 -14    2.16    5.18
  22  -4 -12    5.80    3.11
 -22   4  12    5.13    3.08
  22   4 -12    7.63    3.26
 -22  -4  12   16.06    4.19
  22  -4 -12    3.04    4.51
 -22  -4  12   14.82    2.36
  22   4 -10    2.95    2.93
 -22  -4  10    7.49    3.40
  22  -4 -10    3.40    2.78
 -22   4  10    9.64    3.12
 -22  -4  10    2.56    1.20
 -22   4  10    9.72    2.47
  22   4 -10    5.05    1.32
 -22  -4   8   18.66    2.80
  22   4  -8   30.74    2.82
 -22   4   8   30.62    3.86
  22  -4  -8   37.41    4.56
  22  -4  -8   37.11    1.79
 -22   4   6   11.30    1.08
  22  -4  -6   -1.11    3.20
 -22   4   6   21.82    4.88
  22  -4  -6    8.39    1.28
 -22  -4   6   14.06    2.72
  22   4  -6   12.02    2.20
  22  -4  -4   43.20    3.21
 -22   4   4   28.45    2.02
  22   4  -2   17.47    2.39
 -22   4   2   28.18    4.69
 -22  -4   0   37.22    3.20
  22   4   0   47.01    3.32
 -22  -4  -2   11.51    2.82
  22   4   2   14.89    2.86
  22   4   4    3.18    2.84
 -22  -4  -4    2.29    3.01
  22   4   6   17.28    3.50
 -22  -4  -6   10.90    3.50
  22   4   8   19.39    4.09
 -22  -4  -8    6.72    3.84
 -22  -4 -10   19.38    4.82
  22   4  10   34.17    5.36
 -22  -4 -12  -10.27    4.78
  22   4  12   30.00    6.46
 -22  -4 -14    3.32    6.95
  22  -5 -23    2.24    3.95
 -22   5  23    6.85    5.16
  22   5 -23    2.63   14.14
 -22  -5  23    0.84   12.18
  22  -5 -21    3.66    3.86
 -22   5  21    0.65    3.17
 -22  -5  21   -7.73   10.16
  22   5 -19   -1.73    5.62
  22  -5 -19   12.56    4.19
 -22   5  19   -2.22    3.09
  22   5 -19    2.84    6.56
 -22  -5  19    7.02    6.92
  22   5 -17    8.50    6.17
 -22  -5  17    5.33    5.61
  22   5 -17    0.66    4.06
 -22  -5  17   21.39    6.18
 -22   5  17    2.61    3.01
  22  -5 -17    2.82    3.55
  22  -5 -15    7.54    3.49
 -22   5  15    9.26    3.53
 -22  -5  15   10.75    4.38
  22   5 -15   -1.79    2.37
 -22  -5  15   15.70    5.72
  22   5 -15   13.42    4.95
  22  -5 -15   -3.72    4.12
 -22   5  13    7.57    3.17
  22   5 -13   14.68    3.40
 -22  -5  13    5.44    2.36
  22  -5 -13   14.79    3.48
 -22   5  13   10.60    3.31
  22  -5 -13    2.97    2.58
  22   5 -13   14.02    2.33
 -22  -5  11   47.41    4.05
 -22  -5  11   32.24    2.08
 -22   5  11   41.00    2.81
  22  -5 -11   35.74    2.62
 -22   5  11   36.46    4.32
 -22   5   9   10.06    2.97
  22  -5  -9   17.90    3.16
 -22  -5   9   16.74    1.19
  22   5  -9   14.06    2.26
 -22  -5   9    7.55    2.59
 -22   5   7   16.51    3.61
  22  -5  -7   -0.75    2.40
 -22  -5   7    4.17    2.25
  22   5  -7   11.16    2.24
 -22   5   7    5.10    1.02
  22  -5  -7   12.52    1.19
 -22   5   5    6.35    3.27
  22  -5  -5    4.55    2.62
  22  -5  -5    3.47    1.38
 -22   5   5    5.96    1.26
 -22  -5   5    4.79    1.84
  22   5  -5    5.02    1.62
 -22   5   3    5.33    1.78
  22  -5  -3   10.63    2.47
 -22   5   1   34.23    4.05
  22  -5  -1   46.62    5.52
 -22  -5   1   34.58    2.78
  22   5  -1   41.64    3.04
 -22  -5  -1    0.13    2.31
 -22   5  -1   -0.93    7.86
  22  -5   1    4.43    7.60
 -22  -5  -3   54.22    3.76
  22   5   3   86.12    4.15
 -22  -5  -5    9.89    3.04
  22   5   5   31.17    3.45
  22   5   7   51.29    4.25
 -22  -5  -7   36.13    4.15
 -22  -5  -9    3.36    3.17
  22   5   9   -3.40    2.67
 -22  -6  18   30.06    6.71
  22   6 -18   36.72    6.78
  22  -6 -16   14.10    3.87
 -22   6  16    3.44    2.82
 -22   6  16    7.93    3.55
  22  -6 -16    4.31    3.06
 -22  -6  16    5.55    5.06
  22   6 -16   13.93    4.22
 -22   6  14    5.65    3.01
  22  -6 -14    3.94    2.87
  22   6 -14    6.70    3.35
 -22   6  14    3.33    2.25
  22  -6 -14    2.81    2.32
 -22  -6  14   14.08    3.92
 -22  -6  12   11.29    3.02
  22   6 -12    8.91    2.90
  22   6 -12    9.15    1.31
  22  -6 -12   11.93    3.08
 -22   6  12    5.89    2.78
 -22   6  12   10.92    2.16
  22  -6 -12    9.42    1.96
 -22  -6  12    9.34    2.69
  22   6 -10    3.55    0.51
  22   6 -10    7.81    2.23
 -22  -6  10    6.32    2.63
  22  -6 -10    0.73    2.11
 -22   6  10    3.58    1.38
  22  -6 -10    2.04    1.52
 -22  -6  10    2.35    0.55
 -22   6   8    8.55    2.53
  22  -6  -8    5.80    2.53
  22   6  -8    1.35    1.70
  22  -6  -8    3.81    1.19
 -22   6   8    1.36    1.04
 -22  -6   8    2.43    2.03
  22  -6  -6   11.27    3.70
  22  -6  -6    5.56    1.43
 -22  -6   6   12.36    2.35
  22   6  -6   11.29    1.82
 -22   6   6   13.18    1.25
 -22   6   4    7.92    2.74
  22   6  -4    4.24    1.68
 -22  -6   4    5.55    1.79
 -22   6   4    3.18    1.21
  22  -6  -4    1.51    1.72
 -22  -6   2    4.95    1.98
  22   6  -2    2.86    1.57
 -22   6   2    3.82    1.75
  22  -6  -2    4.98    2.36
 -22  -6   0    5.65    2.06
  22   6   0   12.22    2.04
 -22   6   0   10.37    3.77
  22   6   2    2.44    1.97
 -22  -6  -2    0.89    2.30
 -22   6  -2    0.69    4.60
  22  -6   4   -3.36    8.02
 -22   6  -4   17.70    9.73
  23   0 -33   -3.05    7.04
 -23   0  33    1.10    8.30
  23   0 -31    4.45    7.01
 -23   0  31   -3.97    7.95
  23   0 -29   -2.27    5.61
 -23   0  29  -10.18    6.29
  23   0 -27    2.62    6.11
 -23   0  27    0.71    7.07
  23   0 -25   17.40    6.25
 -23   0  25    1.77    6.75
  23   0 -23   -5.01    5.20
 -23   0  23    5.70    5.90
 -23   0  21    2.55    6.56
  23   0 -21   12.91    7.76
  23   0 -19   37.52    7.79
 -23   0  19   10.56    5.98
  23   0 -17    3.67    4.43
 -23   0  17   10.93    5.19
 -23   0  15    7.09    3.12
  23   0 -15   20.75    4.10
  23   0 -13   11.47    3.36
 -23   0  13    3.80    2.99
 -23   0  11   -9.88    9.10
  23   0 -11    0.56    6.10
  23   0 -11   -1.06    2.37
 -23   0  11    3.28    2.40
 -23   0   9    3.62    2.16
  23   0  -9    1.78    2.54
 -23   0   9    0.37    3.82
  23   0  -9    2.51    2.83
  23   0  -7    9.42    1.63
 -23   0   7    6.58    2.70
 -23   0   7    7.53    1.67
 -23   0   5    7.73    1.34
  23   0  -5    7.00    1.44
  23   0  -3   45.19    2.73
 -23   0   3    2.68    1.97
 -23   0   1   17.55    3.07
  23   0  -1   26.34    3.75
 -23   0  -1    6.05    5.48
  23   1 -32   20.12    9.38
  23  -1 -32   28.12    8.29
 -23   1  32   16.89    8.13
 -23  -1  32   38.67   10.77
  23   1 -30    7.06    8.38
  23  -1 -30    6.21    6.11
 -23  -1  30   14.65    9.42
 -23   1  30   -0.84    5.67
 -23   1  28    1.46    6.10
  23   1 -28   -2.26    6.64
 -23  -1  28  -12.78    6.49
  23  -1 -26   34.84    7.61
 -23   1  26   15.64    6.48
  23   1 -26   29.45    7.65
 -23  -1  26   14.77    7.44
  23  -1 -24    0.62    5.48
 -23   1  24    6.25    5.72
  23   1 -24    3.12    5.24
 -23  -1  24   -3.43    5.72
  23  -1 -22   22.14    7.89
 -23   1  22    7.57    6.11
 -23  -1  22    3.46    5.41
  23   1 -20  242.57   12.36
  23  -1 -20  225.33   13.26
 -23  -1  18  276.59   13.15
  23   1 -18  181.56   10.13
  23   1 -16   20.88    4.80
 -23  -1  16   -7.03    3.58
  23  -1 -16   23.51    4.70
 -23   1  16   27.17    5.04
  23   1 -14   13.66   15.98
 -23  -1  14   -0.39   13.86
  23   1 -12    7.94    6.48
 -23  -1  12   -2.56    6.36
  23  -1 -12   -0.25    2.67
  23   1 -12   10.48    2.80
 -23  -1  12    9.22    2.92
  23   1 -10  496.44    9.57
 -23  -1  10  380.27    8.49
 -23   1   8   32.41    3.47
 -23  -1   8   45.42    4.59
 -23   1   6   17.39    1.02
 -23  -1   6   17.30    1.76
  23   1  -6   12.95    1.73
 -23   1   4   21.92    1.80
  23   1  -4    9.89    1.96
 -23  -1   2    4.12    2.30
 -23   1   2    6.06    4.32
 -23  -1   0   40.56    3.68
  23   1   0   64.66    4.17
 -23  -1  -2  333.40    8.00
  23   1   2  480.52    9.64
 -23  -1  -4  234.67   10.01
  23   1   4  238.01   10.19
 -23  -2  31   18.31   12.48
  23   2 -31   15.56    8.86
  23  -2 -31    3.93    5.39
 -23   2  31   -2.59    4.23
  23  -2 -29    3.75    5.81
 -23  -2  29   -3.84    8.48
 -23   2  29    0.74    5.72
  23   2 -29   -7.82    6.84
  23  -2 -27   25.41    7.37
  23   2 -27    3.74    7.26
 -23  -2  27   20.05    8.72
 -23   2  27   18.52    6.54
  23  -2 -25    1.35    5.31
 -23   2  25   -4.13    4.76
  23   2 -25    9.31    6.57
 -23  -2  25   24.84    8.31
  23  -2 -23   29.28    7.92
 -23   2  23    9.98    6.30
  23   2 -23   14.06    5.96
 -23  -2  23    9.48    6.33
 -23   2  21   22.37    6.18
  23   2 -21   18.64    5.34
 -23  -2  21   11.26    5.61
 -23  -2  19    4.80    4.86
  23  -2 -19    0.48    4.20
 -23   2  19   14.05    5.38
  23   2 -19   11.38    5.71
 -23  -2  17    0.44   13.11
  23   2 -17    3.49   18.45
  23   2 -15   32.52    4.62
 -23  -2  15   11.47    4.25
  23   2 -15   37.10    9.53
 -23  -2  15   11.41   11.23
 -23   2  15   13.42    4.21
  23  -2 -15   11.08    4.51
 -23   2  13  536.19   14.00
  23   2 -13  659.40   12.14
 -23  -2  11   37.45    5.09
 -23  -2  11   40.67    3.35
  23   2  -9   15.21    3.14
 -23  -2   9    6.58    3.21
 -23  -2   9   14.27    2.56
  23   2  -9   18.80    2.79
 -23   2   9   23.71    3.47
  23   2  -7  405.90    5.80
 -23  -2   7  385.09    5.67
 -23   2   7  375.26   12.33
  23   2  -5    1.75    1.80
 -23  -2   5    8.04    1.89
 -23  -2   3    3.58    2.22
  23   2  -3   47.25    2.75
  23   2  -1   88.92    3.69
 -23  -2   1  127.29    4.17
 -23  -2  -1    6.66    3.62
  23   2   1    6.96    3.27
 -23  -2  -3   24.56    4.17
  23   2   3   22.29    4.33
  23   2   5   74.80    6.96
 -23  -2  -5   82.09    6.22
  23   2   7   86.43    8.29
 -23  -2  -7   48.87    7.45
 -23   3  30    1.61    4.19
  23   3 -30   -1.89    8.30
  23  -3 -30    5.04    5.70
  23  -3 -28    8.68    5.74
 -23   3  28    2.40    5.65
 -23  -3  28   10.11    9.15
  23   3 -28   -0.88    8.28
 -23   3  26   -1.50    4.55
  23  -3 -26    0.75    5.68
 -23  -3  26   -5.13    8.92
  23   3 -26    4.43    7.64
  23  -3 -24   18.41    7.25
 -23   3  24   21.73    6.74
  23   3 -24    1.84    6.50
 -23  -3  24    9.72    7.61
  23   3 -22   98.86    8.97
 -23   3  22   79.99    8.75
 -23  -3  20  -17.93   10.92
  23   3 -20    3.12   14.79
 -23   3  18   20.08    4.96
 -23  -3  18   48.37    5.67
 -23  -3  18   13.93   15.37
  23   3 -18   58.60   13.04
  23  -3 -18   41.37    5.86
 -23  -3  16   31.63    4.76
 -23  -3  16    9.23    7.89
 -23  -3  14   83.65    8.24
  23   3 -14  122.02    5.88
 -23  -3  12   -2.16    1.71
 -23  -3  12   10.45    4.68
 -23   3  10   20.12    3.68
 -23  -3  10   13.88    1.95
  23  -3 -10   21.07    3.63
 -23  -3  10    5.83    3.31
  23   3 -10   17.36    3.56
  23   3  -8   12.10    2.36
  23  -3  -8   12.16    1.54
 -23   3   8    1.21    2.37
 -23   3   8    6.42    3.82
  23  -3  -8   12.67    3.80
  23   3  -6  254.09    4.88
 -23  -3   6  239.16    4.96
  23  -3  -6  224.84    8.71
 -23   3   6  270.55   10.20
 -23  -3   4  141.72    4.09
  23   3  -4  160.95    4.10
 -23  -3   2   34.86    3.04
  23   3  -2   23.45    2.81
  23   3   0  199.51    5.21
 -23  -3   0  136.10    4.90
  23   3   2  144.05    5.51
 -23  -3  -2   82.05    4.68
  23   3   4   22.85    3.86
 -23  -3  -4   36.30    4.06
 -23  -3  -6   25.27    4.40
  23   3   6   15.34    4.23
  23   3   8   24.41    5.86
 -23  -3  -8   20.76    5.18
 -23  -3 -10   14.19    6.19
  23   3  10   26.07    6.66
 -23   4  27   11.91    5.56
  23  -4 -27    5.28    6.16
  23   4 -25    6.49    7.25
  23   4 -25    6.77   15.47
 -23   4  25   -0.93    5.83
  23   4 -23    8.99    6.94
 -23  -4  23    1.36    8.36
 -23  -4  23    4.12    9.64
  23   4 -23   28.31   14.13
  23  -4 -23   18.68    6.06
 -23   4  23    9.93    5.12
  23   4 -21    8.11    5.25
 -23  -4  21   25.18    7.89
  23   4 -21   30.33   15.87
 -23  -4  21  -11.95   13.24
  23  -4 -21   14.57    4.88
 -23   4  21    4.39    4.02
 -23  -4  19    1.71    5.58
 -23   4  19    7.86    4.03
  23  -4 -19    1.00    3.25
  23   4 -19   -0.40    7.65
 -23  -4  19    3.79    9.42
 -23   4  17    8.63    3.46
  23  -4 -17   14.62    4.39
  23   4 -17   21.31    3.67
 -23  -4  17   11.52    7.44
 -23   4  15   15.88    4.05
 -23  -4  15   24.66    3.65
 -23  -4  15   20.60    6.64
 -23  -4  13   40.71    3.42
  23   4 -13   37.88    3.07
  23  -4 -13   38.16    4.69
 -23  -4  13   42.74    4.80
 -23   4  13   44.76    5.03
 -23  -4  11   15.84    3.28
  23   4 -11   14.89    3.22
  23  -4 -11    4.36    2.35
 -23   4  11    4.01    3.54
  23  -4 -11    2.66    3.02
 -23   4  11    7.65    2.97
  23   4 -11    9.63    1.53
 -23  -4  11    2.50    1.47
  23  -4  -9    0.88    2.76
 -23  -4   9    8.34    1.70
 -23   4   9   -1.16    2.30
 -23   4   9    0.05    1.64
 -23  -4   9    8.44    2.72
 -23  -4   7  180.85    4.96
  23   4  -7  168.46    4.77
  23  -4  -7  167.38    2.26
  23  -4  -7  166.24    9.08
 -23   4   7  188.18    8.89
 -23   4   7  181.41    2.39
  23  -4  -5   22.10    1.85
  23   4  -5   23.61    2.18
 -23   4   5   22.45    1.49
 -23  -4   3   12.58    2.20
  23   4  -3    5.76    1.88
  23  -4  -3   17.84    4.70
 -23   4   3   10.80    3.47
  23   4  -1    2.96    2.31
 -23  -4   1    2.81    2.14
 -23   4   1   -5.00    6.69
 -23  -4  -1    6.50    2.42
  23   4   1   31.19    3.03
  23   4   3   54.06    4.08
 -23  -4  -3  159.09    5.46
 -23  -4  -5   21.16    3.66
  23   4   5    6.61    2.72
 -23  -4  -7   -1.84    3.05
  23   4   7   26.06    3.78
 -23  -4  -9   25.29    4.42
  23   4   9   49.88    5.24
  23   4  11   14.89    5.44
 -23  -4 -11    4.94    5.03
 -23  -4 -13    6.19    5.82
  23   4  13   22.08    6.65
  23  -5 -22    6.36    4.27
 -23   5  22    6.22    4.37
 -23  -5  22    3.60   10.66
  23   5 -22   13.93    9.70
  23   5 -20    5.80    5.61
 -23  -5  20   18.95    7.27
 -23   5  20   -2.90    2.78
  23  -5 -20   -1.68    3.41
  23  -5 -18    0.96    2.96
 -23   5  18    7.73    3.37
  23   5 -18   18.34    4.61
 -23  -5  18   -0.86    5.43
  23   5 -18   13.76    6.27
 -23  -5  18    3.70    6.76
  23  -5 -16    1.92    3.29
 -23   5  16   -1.38    2.40
  23   5 -16    6.61    2.62
 -23  -5  16   13.13    4.25
 -23  -5  16   -2.57    5.14
  23   5 -16    8.32    5.26
 -23  -5  14   59.37    3.91
  23   5 -14   54.51    3.66
  23  -5 -14   47.59    4.09
 -23   5  14   42.62    4.83
 -23   5  14   48.64    5.46
  23   5 -12   15.68    1.53
  23  -5 -12   11.24    3.16
 -23   5  12   14.98    3.36
  23  -5 -12   21.51    2.53
 -23  -5  12   16.07    2.20
 -23  -5  10    2.03    2.62
  23   5 -10   -0.77    2.20
 -23  -5  10    4.01    0.92
 -23   5  10    7.25    2.74
  23  -5 -10    9.09    2.93
  23   5 -10    4.63    1.18
 -23   5  10    3.32    1.61
  23  -5  -8    6.11    2.98
  23   5  -8    2.40    1.89
 -23   5   8    3.96    1.14
  23  -5  -8    3.25    1.07
 -23  -5   8    2.84    2.08
 -23   5   6    8.18    3.19
  23  -5  -6    7.50    3.33
  23  -5  -6    6.85    1.23
 -23   5   4    2.59    1.57
  23  -5  -4   -0.52    1.68
  23   5  -4    5.94    1.79
 -23  -5   4    6.69    1.86
 -23   5   2    4.70    3.28
  23  -5  -2    6.22    4.04
  23   5  -2    0.97    1.63
 -23  -5   2    4.23    1.79
 -23  -5   0    8.37    2.24
  23   5   0   12.78    2.30
 -23   5   0    6.40    5.28
  23  -5   0    5.18    9.04
 -23  -5  -2    6.76    2.58
 -23   5  -2   -4.87    7.31
 -23  -5  -4    5.64    2.61
  23   5   4    7.89    2.62
 -23  -5  -6    1.49    3.15
  23   5   6    0.19    2.54
  23   5   8    1.25    2.75
 -23  -5  -8   -0.82    3.12
 -23   6  15    4.49    2.95
  23  -6 -15    8.94    3.33
 -23  -6  15    6.44    3.87
  23   6 -15    0.21    2.97
  23  -6 -15    5.62    2.32
 -23   6  15    1.68    2.58
  23   6 -15    6.07    2.95
  23   6 -13    7.87    1.55
  23  -6 -13    5.10    2.45
 -23   6  13    6.66    2.79
 -23  -6  13    7.96    2.89
  23   6 -13    6.77    2.75
  23  -6 -13    0.85    2.05
 -23   6  13    3.53    2.03
 -23  -6  11    6.09    2.96
  23   6 -11    7.09    2.43
  23  -6 -11    3.56    2.30
 -23   6  11    3.41    2.36
  23   6 -11    3.00    0.57
  23  -6 -11    8.97    1.72
 -23   6  11    3.22    1.46
 -23  -6  11    3.53    0.89
  23   6  -9    6.96    2.05
 -23   6   9    2.10    1.25
  23  -6  -9    2.87    1.17
 -23   6   9    4.56    2.58
 -23  -6   9    3.31    1.99
  23  -6  -9    1.66    1.79
 -23   6   7    3.08    1.02
  23   6  -7    2.11    1.59
  23  -6  -7    3.11    1.05
 -23   6   7    0.40    2.03
  23  -6  -7   -1.30    2.22
 -23   6   5    2.15    1.21
 -23  -6   5    1.88    1.68
  23   6  -5   -0.56    1.38
  23  -6  -5    2.28    1.34
 -23   6   5    5.93    3.35
  23  -6  -5    1.45    2.04
 -23  -6   3   -0.35    1.79
 -23   6   3    0.82    1.65
  23  -6  -3    4.39    1.95
  23   6  -1    0.90    1.56
 -23  -6   1    1.22    1.77
  23  -6  -1    3.16    4.00
 -23   6   1   -2.25    2.83
 -23  -6  -1    1.78    2.09
  23   6   1   -0.88    1.68
 -23   6  -1    1.44    4.27
  23  -6   1    5.48    5.57
  24   0 -32   -0.90    5.83
 -24   0  32    2.05    7.95
  24   0 -30   56.88    9.03
 -24   0  30   23.47    8.06
  24   0 -28    7.28    5.70
 -24   0  28    9.55    6.81
  24   0 -26   -1.22    5.52
 -24   0  26   14.59    5.83
  24   0 -24    1.74    5.66
 -24   0  24    4.76    6.19
 -24   0  22   33.18    6.58
  24   0 -22   62.00    8.80
 -24   0  20  134.17   10.72
  24   0 -20  464.27   16.61
  24   0 -18    7.80    4.78
 -24   0  18   -0.43    4.95
 -24   0  16   85.26    6.26
  24   0 -16   35.49    4.70
  24   0 -14   68.40    5.63
 -24   0  14   34.19    4.51
  24   0 -12   -0.74   10.59
 -24   0  12   -0.30   11.91
  24   0 -10   12.09    4.60
 -24   0  10    7.73    4.48
  24   0  -8  337.26    9.75
 -24   0   8  190.47    8.33
 -24   0   6    5.30    1.42
  24   0  -6   12.61    1.51
 -24   0   4  412.72    4.82
  24   0  -4  540.61    5.58
 -24   0   2  567.11    6.98
  24   0  -2  582.53    7.13
  24   0   0  157.60    7.11
 -24   0   0  126.49    5.57
  24  -1 -31   -0.80    5.04
 -24  -1  31   20.79    9.80
 -24   1  31   -0.87    5.81
  24   1 -31    6.29    7.36
 -24   1  29   14.86    6.77
  24   1 -29   10.77    7.30
 -24  -1  29   -1.75    7.73
  24  -1 -27   27.09    7.42
 -24   1  27   33.11    7.09
 -24  -1  27   49.55    8.93
  24  -1 -25   -1.30    4.98
 -24   1  25    1.95    5.24
 -24  -1  25   11.89    6.29
 -24   1  23   29.16    6.76
 -24  -1  23   48.22    7.41
 -24  -1  21   48.43    7.49
 -24   1  21   26.60    6.77
  24  -1 -19   10.22    5.01
 -24   1  19   -7.28    4.81
  24  -1 -17   48.01    5.63
 -24  -1  17   32.49    5.27
 -24   1  17   52.12    6.32
 -24  -1  15   -1.75   12.11
  24   1 -15    7.74   17.73
  24   1 -13    2.22    7.99
 -24  -1  13   -5.33    7.28
 -24  -1  11    1.49    5.29
  24   1 -11   11.87    4.91
  24   1 -11   18.32    2.96
 -24   1  11   25.56    3.74
 -24  -1  11   21.35    3.16
  24  -1 -11   26.26    3.72
  24  -1  -9   45.25    4.41
 -24   1   9    9.13    4.46
 -24   1   7   28.74    3.70
 -24   1   7   11.76    1.42
  24   1  -7   26.89    2.14
  24  -1  -7   25.68    1.39
 -24  -1   5   26.45    2.07
  24   1  -5   22.50    1.97
 -24   1   3  464.33    5.43
  24   1  -3  650.99    6.97
  24   1  -1   30.33    3.50
 -24  -1   1   42.01    3.52
  24   1   1    7.63    3.96
 -24  -1  -1    9.82    3.51
 -24  -1  -3  313.06    9.51
  24   1   3  345.00   10.53
 -24   2  30    5.31    5.63
  24   2 -30   27.92    8.59
 -24  -2  30   43.01   11.10
 -24  -2  28   21.22    9.68
 -24   2  28   26.03    7.46
  24   2 -28   18.43    7.49
  24  -2 -26   52.33    8.29
 -24   2  26    7.83    5.23
  24   2 -26   37.69    7.59
 -24  -2  26   38.99    9.19
  24  -2 -24   12.60    6.64
 -24   2  24    2.89    5.30
  24   2 -24   17.64    5.78
 -24  -2  24   11.60    6.48
 -24   2  22   18.27    6.01
  24  -2 -22    3.78    5.41
  24   2 -22   14.13    4.88
 -24  -2  22   10.91    5.12
 -24  -2  20   20.38    5.29
  24  -2 -20   38.87    6.32
 -24   2  20   42.07    6.89
  24   2 -20   24.16    5.48
 -24  -2  18  -13.12   12.13
  24   2 -18  -13.60   14.61
 -24   2  16   17.73    4.37
 -24  -2  16   -1.31   13.43
  24   2 -16   14.84   11.77
 -24  -2  14  148.67    6.31
 -24  -2  14   34.49    8.13
  24   2 -12  200.10    7.80
 -24  -2  12  211.63    6.78
  24  -2 -12  224.56    8.76
 -24   2  12  172.65    7.59
  24   2 -12  213.09    6.59
  24   2 -10  138.45    5.42
 -24  -2  10  106.59    4.37
 -24  -2   8   12.80    2.29
  24  -2  -8   16.49    4.37
 -24   2   8   11.46    3.60
  24   2  -8    7.52    2.30
 -24  -2   6    3.44    1.86
  24   2  -6    3.59    1.86
  24  -2  -6    1.73    0.65
 -24  -2   4   21.10    2.33
  24   2  -4   18.96    2.05
 -24  -2   2   86.86    3.64
  24   2  -2   22.79    2.66
 -24  -2   0  209.75    5.27
  24   2   0  138.54    5.13
 -24  -2  -2   93.06    5.01
  24   2   2   92.89    4.99
 -24  -2  -4   76.58    5.43
  24   2   4  111.34    6.34
  24   2   6   71.89    7.29
 -24  -2  -6   38.85    6.15
 -24  -2  -8   85.32    8.54
  24   3 -29    0.86    6.84
 -24  -3  29  -11.82    7.76
 -24   3  29   -4.94    4.12
  24   3 -27   43.00    9.51
 -24   3  27   -5.41    4.23
  24  -3 -27   37.29    7.85
  24   3 -25    5.08    5.92
  24  -3 -25    0.83    5.86
 -24   3  25   -4.16    3.90
  24   3 -23    8.12    5.85
 -24  -3  23   19.89    7.16
  24  -3 -23    8.92    5.66
 -24   3  23    0.66    4.40
 -24  -3  21   -7.19   11.57
  24   3 -21   13.36   14.55
  24   3 -21    4.25    4.18
 -24  -3  21   11.56    5.43
  24  -3 -21    7.73    4.81
 -24   3  21    2.42    4.48
  24   3 -19   -7.29   14.16
 -24  -3  19    4.14   15.43
 -24   3  19   12.39    4.62
  24  -3 -19    8.65    4.22
 -24  -3  19    1.77    3.73
 -24   3  17   20.38    4.28
  24   3 -17   20.44    5.17
 -24  -3  17    5.01    3.90
  24   3 -17    0.33    7.48
 -24  -3  17    2.18    7.68
  24   3 -15    6.32    2.75
 -24  -3  15    6.58    3.15
 -24  -3  15   19.45    6.77
  24   3 -15   21.30    6.98
  24  -3 -15   -2.02    3.24
 -24   3  15   -0.39    3.10
 -24  -3  13   10.17    5.51
 -24  -3  13    9.27    2.42
  24   3 -13   15.77    2.70
  24  -3 -13   13.97    3.69
 -24   3  13   20.55    4.15
  24  -3 -11   12.10    3.51
 -24   3  11   26.71    3.96
 -24  -3  11   17.52    2.16
  24   3 -11   22.71    2.38
 -24  -3   9    7.24    2.29
 -24   3   9   15.03    3.25
  24  -3  -9   16.77    3.73
  24   3  -9   13.31    2.48
  24  -3  -7   33.69    5.09
 -24   3   7   29.14    5.30
  24  -3  -7   30.93    0.80
 -24   3   5    5.93    2.34
  24   3  -5    8.57    1.98
 -24  -3   5   10.38    2.07
 -24  -3   3   37.00    2.70
  24   3  -3   48.75    2.82
  24   3  -1   78.93    3.67
 -24  -3   1   21.54    2.84
  24   3   1   68.07    3.94
 -24  -3  -1   68.72    3.93
 -24  -3  -3   14.78    3.55
  24   3   3    7.87    3.14
 -24  -3  -5   11.51    3.54
  24   3   5    1.00    3.12
 -24  -3  -7   24.72    4.70
  24   3   7   26.01    4.90
 -24  -3  -9   96.37    7.12
  24   3   9   21.87    6.18
 -24  -3 -11   -1.43    6.33
 -24   4  26    1.95    5.78
  24   4 -26    0.76    6.43
  24   4 -24   14.88    6.50
 -24  -4  24   18.44    8.73
 -24  -4  24    9.56    9.81
  24   4 -24   17.76   13.22
  24  -4 -24   18.65    6.63
 -24   4  24    9.42    4.35
  24   4 -22   12.89    5.39
 -24  -4  22    2.89    6.53
  24   4 -22    2.55   13.43
 -24  -4  22   -2.83   11.77
  24  -4 -22    3.63    3.73
 -24   4  22   -1.33    4.03
  24   4 -20   43.43    5.63
 -24  -4  20   13.39    5.84
 -24   4  20    9.89    4.11
  24  -4 -20   20.06    5.31
 -24  -4  20   -2.42   11.40
  24   4 -20   43.46    9.29
  24  -4 -18    8.53    3.51
 -24   4  18    6.85    3.48
 -24  -4  18    3.13    3.71
  24   4 -18   13.59    3.71
  24   4 -18    7.86    6.99
 -24  -4  18   -6.17    6.67
  24   4 -16   25.27    4.08
 -24  -4  16   21.93    3.70
  24  -4 -16   31.97    4.99
 -24   4  16   22.51    4.33
 -24  -4  16    8.44    6.00
  24   4 -16   28.47    6.59
 -24  -4  14   18.90    2.93
 -24  -4  14   23.31    5.43
  24   4 -14   22.67    4.34
  24  -4 -14   17.52    4.12
 -24   4  14   12.11    3.27
 -24  -4  12   15.83    3.49
  24   4 -12   16.38    3.15
  24  -4 -12   13.98    3.89
  24   4 -12   20.36    2.08
  24  -4 -12   13.41    3.35
 -24   4  12   15.10    3.18
 -24  -4  12   15.11    1.99
  24   4 -10    3.37    2.38
 -24  -4  10    5.26    2.82
 -24  -4  10    1.82    1.11
  24   4 -10    7.26    1.67
  24  -4 -10    4.61    2.57
  24  -4 -10    7.23    1.80
 -24   4  10    6.68    2.03
 -24  -4   8   -1.39    2.00
  24   4  -8    3.35    2.17
  24  -4  -8    2.51    1.00
 -24   4   8   -2.43    2.57
  24  -4  -8   -3.64    2.82
 -24   4   6   12.24    3.67
  24  -4  -6   11.62    3.05
 -24  -4   6   14.54    2.17
  24  -4  -6    7.48    1.22
 -24   4   6   12.19    1.12
 -24  -4   4    3.11    1.94
  24   4  -4    2.55    1.73
 -24   4   4    3.98    2.46
  24  -4  -4    7.39    3.57
 -24   4   2   38.82    7.73
 -24  -4   2   32.82    2.75
  24   4  -2   40.16    2.84
 -24  -4   0  113.54    4.49
  24   4   0  234.78    5.86
  24   4   2   34.94    3.27
 -24  -4  -2   42.60    3.44
  24   4   4    2.05    2.79
 -24  -4  -4    1.77    2.97
  24   4   6   19.01    3.34
 -24  -4  -6   14.67    3.57
 -24  -4  -8    3.18    3.25
  24   4   8    1.54    3.39
  24   4  10   14.37    4.70
 -24  -4 -10   10.50    4.31
 -24  -4 -12   15.21    5.68
  24   4  12   16.59    6.30
 -24  -5  23  -24.59   11.53
  24   5 -23   39.81   11.83
  24   5 -21   -0.48    5.24
 -24   5  21    6.61    3.70
  24  -5 -21   -2.97    3.20
  24   5 -21   17.41    8.14
 -24  -5  21    7.65    7.12
 -24   5  19    2.89    2.93
  24  -5 -19   12.46    3.52
 -24  -5  19   22.42    6.22
  24   5 -19   16.26    4.12
  24   5 -19    0.75    5.68
 -24  -5  19   -7.87    6.29
 -24   5  17    0.48    2.62
  24  -5 -17   -3.42    2.85
  24   5 -17   11.16    2.84
 -24  -5  17    2.19    3.89
 -24  -5  17    6.21    5.92
  24   5 -17   20.82    6.02
 -24  -5  15    9.39    4.67
  24   5 -15   17.65    4.28
  24  -5 -15    0.34    3.95
 -24   5  15   11.54    3.63
  24  -5 -15   22.74    4.31
  24   5 -15   13.44    2.73
 -24  -5  15    9.94    2.66
 -24   5  13   -0.59    2.84
  24  -5 -13    9.58    2.95
 -24   5  13    6.96    2.84
  24   5 -13    5.05    1.56
 -24  -5  13    2.40    3.05
  24   5 -13    4.61    2.89
  24  -5 -13    3.23    2.24
 -24  -5  13    3.49    1.84
  24   5 -11    5.44    2.43
 -24  -5  11    6.00    2.94
  24  -5 -11    2.49    2.47
 -24   5  11    1.07    2.12
 -24  -5  11    0.24    0.83
 -24   5  11    5.39    1.82
  24  -5 -11    3.83    1.65
  24   5  -9   -0.12    1.88
  24  -5  -9    4.66    1.21
 -24  -5   9    6.34    2.23
 -24   5   9   11.79    2.92
  24  -5  -9    1.80    2.25
 -24   5   9    6.82    1.28
  24  -5  -7   11.91    3.66
 -24   5   7   12.68    3.07
 -24   5   7    7.44    0.98
 -24  -5   7    4.33    2.15
  24  -5  -7    6.14    1.01
  24   5  -7   10.64    1.92
 -24   5   5    2.43    2.35
  24  -5  -5    3.10    1.56
 -24   5   5    1.44    1.04
 -24  -5   5    6.07    1.92
  24  -5  -3    4.13    3.25
 -24  -5   3   -1.14    1.58
  24   5  -3    3.12    1.57
  24  -5  -1   34.04    7.82
 -24   5   1   18.35    4.37
 -24  -5   1   24.31    2.50
  24   5  -1   25.69    2.61
 -24  -5  -1    7.31    2.34
 -24   5  -1    3.45    6.97
 -24  -5  -3   -0.15    2.27
  24   5   3    2.03    1.99
  24   5   5   20.41    3.15
 -24  -5  -5   14.59    3.22
 -24  -5  -7    4.19    3.22
  24   5   7    2.68    2.82
  24   6 -14    2.98    1.68
  24  -6 -14    5.58    2.88
 -24   6  14    1.31    2.39
 -24  -6  14   10.39    3.26
  24   6 -14   13.64    3.11
  24  -6 -14    4.09    2.21
 -24   6  14    2.46    2.12
 -24  -6  14    4.48    2.82
  24   6 -12    3.29    2.37
 -24  -6  12    1.64    2.78
  24  -6 -12    6.45    2.70
 -24   6  12    0.39    2.22
  24   6 -12    3.72    0.86
 -24   6  12   -0.10    1.64
  24  -6 -12    0.73    1.55
 -24  -6  10    1.17    2.14
 -24   6  10    4.80    2.45
  24  -6 -10   -0.25    1.18
  24   6 -10    4.72    1.89
 -24  -6  10    1.33    0.44
  24  -6 -10    3.25    2.32
 -24   6  10    3.28    1.28
  24  -6  -8    8.05    2.97
 -24   6   8   13.57    3.31
 -24  -6   8    5.90    2.17
  24   6  -8    5.42    1.92
 -24   6   8    7.31    1.14
  24  -6  -8    8.39    1.24
  24  -6  -6    0.88    2.44
 -24   6   6    5.94    3.20
 -24   6   6    2.69    1.01
 -24  -6   6    0.35    1.66
  24  -6  -6    1.21    1.15
  24  -6  -4    2.06    1.69
 -24   6   4    3.27    1.44
 -24  -6   4    4.42    1.73
  24  -6  -2    9.97    3.59
 -24   6   2    4.51    2.34
  24   6  -2   12.25    1.97
 -24  -6   2   14.44    2.19
  25   0 -31    1.58    5.31
 -25   0  31    2.67    6.78
  25   0 -29    8.77    6.26
 -25   0  29   12.05    6.48
  25   0 -27   -2.53    5.56
 -25   0  27   11.38    5.89
 -25   0  25    4.96    5.34
  25   0 -25   10.26    6.27
 -25   0  23    3.95    5.17
  25   0 -23   11.69    5.99
 -25   0  21   76.82    8.96
  25   0 -21    9.61    5.90
  25   0 -19    2.13    4.59
 -25   0  19    9.27    5.14
  25   0 -17   -2.61    3.60
 -25   0  17   -5.70    3.40
  25   0 -15   19.27    4.43
 -25   0  15    1.79    3.28
 -25   0  13   -0.77    9.87
  25   0 -13   16.43   14.37
  25   0 -13    7.63    3.11
 -25   0  13    4.50    2.77
  25   0 -11    0.73    4.74
 -25   0  11    0.14    5.35
  25   0 -11    2.79    2.50
 -25   0  11    7.26    2.75
  25   0  -9    3.52    3.34
 -25   0   9    2.82    2.73
  25   0  -9    1.84    2.27
 -25   0   9    0.06    2.46
 -25   0   7   11.14    1.75
  25   0  -7    3.83    1.45
  25   0  -5    4.21    1.62
 -25   0   5    3.68    1.49
 -25   0   3   23.72    2.44
  25   0  -3   10.41    2.70
  25   0  -1   14.03    3.82
 -25   0   1    1.40    3.22
 -25   0  -1   18.18    5.51
 -25  -1  32   14.19    8.66
  25  -1 -32    2.45    5.89
 -25   1  32    8.00    6.82
  25   1 -32   11.05    8.24
  25  -1 -30   40.82    7.68
 -25   1  30   13.84    6.75
  25   1 -30   39.76    8.54
 -25  -1  30   38.63    9.51
  25  -1 -28    1.44    5.09
 -25   1  28   11.20    5.73
  25   1 -28    1.98    6.21
 -25  -1  28   -2.95    6.34
  25  -1 -26    2.69    5.38
 -25   1  26    9.45    5.52
  25   1 -26   21.73    5.76
 -25  -1  26   10.56    5.45
  25   1 -24   21.88    6.61
 -25   1  24    7.47    5.17
 -25  -1  24   11.40    5.48
  25   1 -22  184.62   11.56
  25  -1 -22  461.54   17.89
 -25  -1  20   16.42    6.43
  25  -1 -20    5.79    4.99
 -25   1  20   12.00    5.27
 -25   1  18    6.58    4.36
  25   1 -18   14.45    4.60
 -25  -1  18   13.00    5.02
  25  -1 -18    7.46    4.44
 -25  -1  16    9.92   11.98
  25   1 -16    0.39   13.81
  25  -1 -14  468.96   12.67
  25   1 -14  505.03   12.27
 -25   1  14  446.19   12.69
  25   1 -12    2.97    6.03
 -25  -1  12    5.59    5.69
  25  -1 -12    7.34    3.18
  25   1 -12    6.62    2.78
 -25   1  12    6.06    3.13
 -25  -1  12    6.64    2.61
  25  -1 -10   40.27    5.55
 -25   1  10   30.37    9.87
 -25  -1   8   18.64    2.77
  25  -1  -8   15.69    1.80
 -25   1   8   11.54    2.06
  25   1  -6  199.30    3.68
  25  -1  -6  208.95    2.50
 -25  -1   4    4.76    1.93
  25  -1  -4   11.27    2.09
 -25   1   4    6.75    1.91
  25   1  -2  126.23    4.19
 -25   1   2  108.88    5.38
  25   1   0    3.22    3.27
 -25  -1   0    1.61    3.04
 -25  -1  -2   79.20    5.29
  25   1   2  123.71    6.52
 -25  -1  -4   70.67    6.93
  25   1   4   57.44    7.23
 -25   2  31    3.13    5.25
  25   2 -31   10.66    7.05
 -25  -2  31   -4.06    8.49
  25  -2 -31   11.27    6.13
  25  -2 -29   52.66    8.55
 -25  -2  29   42.55    9.98
  25   2 -29   43.72    8.74
 -25   2  29    8.70    5.97
  25  -2 -27   -2.89    4.79
 -25   2  27    2.21    4.59
  25   2 -27   -0.66    5.08
 -25  -2  27    8.23    7.02
  25  -2 -25    3.39    6.18
 -25   2  25    8.77    5.85
  25   2 -25   -1.61    4.19
 -25  -2  25   -5.35    4.91
  25  -2 -23   24.35    6.62
 -25   2  23    8.05    4.92
 -25  -2  23    4.79    4.62
  25   2 -23   24.43    5.64
 -25  -2  21   29.67    5.60
 -25   2  21   66.16    8.00
 -25   2  19    8.85    4.14
 -25  -2  19   15.65    5.04
  25  -2 -19   16.08    4.84
 -25  -2  19   -4.12   11.34
  25   2 -19   -4.10   14.08
  25  -2 -17  219.45   10.20
 -25  -2  17  199.70    9.54
  25   2 -17  213.81    9.17
 -25  -2  15   -2.60    7.68
  25   2 -15    5.35    7.77
 -25  -2  13   44.80    7.19
 -25  -2  13   76.10    4.98
  25   2 -11    7.46    2.15
  25   2 -11   19.34    3.31
 -25  -2  11   23.09    3.76
 -25   2  11   13.02    3.37
  25  -2 -11   12.53    3.48
 -25  -2   9    3.44    2.79
  25   2  -9   12.64    2.47
 -25   2   9    5.30    3.29
  25   2  -9    2.62    2.16
  25  -2  -9   12.52    3.55
  25  -2  -7   30.64    0.60
 -25   2   7   22.76    0.99
 -25  -2   5    6.45    1.95
  25   2  -5    5.62    1.85
 -25  -2   3   14.75    2.41
  25   2  -3   12.49    2.35
  25   2  -1   93.02    3.98
 -25  -2   1   85.39    3.77
 -25  -2  -1   11.02    3.45
  25   2   1    8.49    3.04
  25   2   3   11.66    3.90
 -25  -2  -3   11.49    3.54
  25   2   5  101.78    7.33
 -25  -2  -5  109.10    6.19
 -25  -2  -7   21.85    6.33
  25   2   7   45.48    7.37
  25   3 -28   -2.29    5.86
 -25  -3  28   24.75    9.11
 -25   3  28    3.99    4.86
  25  -3 -28    1.58    5.11
 -25  -3  26  -10.85    5.56
  25   3 -26   -3.95    5.35
  25  -3 -26    7.58    5.84
 -25   3  26    4.17    5.08
  25   3 -24   50.35    7.06
 -25  -3  24   32.59    7.63
  25  -3 -24   47.31    7.95
 -25   3  24   20.78    5.32
 -25  -3  22    2.60   10.75
  25   3 -22    6.43   14.37
  25   3 -22   -4.04    3.45
 -25  -3  22    6.97    5.09
  25  -3 -22   11.05    4.90
 -25   3  22   14.06    5.57
  25   3 -20   70.15   17.63
 -25  -3  20    5.03   12.75
 -25   3  20   14.01    4.49
  25   3 -20   42.88    5.57
  25  -3 -20   30.24    5.91
 -25  -3  20   27.65    5.19
 -25   3  18   12.86    3.55
  25  -3 -18   20.66    4.36
 -25  -3  18    4.01    3.41
  25   3 -18    2.42    7.91
 -25  -3  18   22.20   10.28
  25  -3 -16    3.83    4.01
 -25   3  16    4.03    3.15
  25   3 -16   15.49    6.58
  25   3 -16   16.97    3.47
 -25  -3  16    0.88    2.67
 -25  -3  16   13.62    7.05
 -25  -3  14   26.89    6.63
  25   3 -14   22.79    5.54
 -25  -3  14   10.44    2.31
  25  -3 -14   23.68    4.08
 -25   3  14   22.94    4.05
  25   3 -14   25.25    3.12
  25  -3 -12    4.50    2.89
  25   3 -12    8.75    2.05
  25   3 -12   11.90    3.14
  25  -3 -10   29.05    3.86
 -25  -3  10   29.09    2.51
 -25   3  10   30.65    3.96
  25  -3  -8  107.76    7.57
 -25   3   8   81.54    6.19
  25  -3  -8   92.33    1.54
  25   3  -8   95.81    3.69
 -25  -3   8   77.47    3.46
 -25  -3   6    9.37    2.01
  25   3  -6    6.83    1.81
 -25   3   6    1.29    0.70
  25  -3  -6    4.92    1.88
 -25   3   6    7.95    2.92
  25   3  -4   36.46    2.51
 -25  -3   4   16.86    2.01
 -25  -3   2    9.98    2.39
  25   3  -2    7.89    2.19
 -25  -3   0   12.67    2.84
  25   3   0   11.94    2.42
  25   3   2    8.33    2.97
 -25  -3  -2   11.81    3.19
  25   3   4   14.68    3.52
 -25  -3  -4    6.75    3.23
  25   3   6   26.93    4.28
 -25  -3  -6   17.48    4.08
  25   3   8   14.20    5.02
 -25  -3  -8   10.75    4.83
 -25  -3 -10   10.11    5.53
  25   3  10   14.19    6.25
 -25  -4  25  -11.95    7.01
  25   4 -25    5.13    6.21
  25   4 -25  -14.69   13.50
  25   4 -23    5.23    5.34
 -25  -4  23   -2.04   10.24
  25   4 -23    9.88   15.84
  25  -4 -23    4.45    4.22
 -25   4  23   -1.40    3.76
  25   4 -21   16.22    4.49
 -25   4  21    6.26    4.14
 -25  -4  21   12.90   13.43
 -25   4  19    0.45    2.61
  25  -4 -19   -3.63    2.94
  25   4 -19   12.27    7.29
 -25  -4  19   -0.38    6.88
  25  -4 -17   26.17    4.77
 -25   4  17   14.91    3.72
  25   4 -17   38.04    6.87
 -25  -4  17   31.32    6.98
 -25  -4  17   32.35    4.27
  25  -4 -15   16.13    3.78
  25   4 -15    8.57    2.58
 -25  -4  15   12.54    2.91
 -25  -4  15    4.40    5.44
  25   4 -15    8.65    4.50
 -25  -4  13   17.46    2.17
 -25   4  13   25.72    3.94
 -25  -4  13   11.43    3.67
  25   4 -11   11.64    2.90
 -25  -4  11    5.85    2.99
 -25   4  11    2.38    2.54
 -25  -4  11    5.64    1.34
  25  -4 -11    7.89    2.83
  25  -4 -11    6.24    2.10
 -25   4  11    1.64    3.24
  25   4 -11   10.56    1.43
  25  -4  -9   18.91    3.84
 -25   4   9   32.89    3.95
 -25  -4   9   20.91    2.55
  25   4  -9   23.46    2.53
  25  -4  -7    7.67    3.61
 -25   4   7    7.89    3.74
  25  -4  -7    3.97    0.96
 -25  -4   7    0.20    2.05
  25   4  -7    1.06    1.52
 -25   4   7    6.02    0.80
  25   4  -5    4.48    1.70
  25  -4  -5    4.29    2.61
 -25   4   5   -0.42    1.28
 -25   4   3   31.13    5.32
  25  -4  -3   20.95    6.71
  25   4  -3   20.73    2.19
 -25  -4   3   18.57    2.23
  25   4  -1   51.70    3.23
 -25  -4   1   27.36    2.81
  25   4   1   36.63    2.95
 -25  -4  -1   36.53    3.33
 -25  -4  -3   14.39    3.01
  25   4   3   38.90    3.65
 -25  -4  -5    0.18    2.97
  25   4   5    3.40    2.79
 -25  -4  -7   14.08    3.66
  25   4   7    8.41    3.42
  25   4   9    9.00    4.07
 -25  -4  -9   11.23    3.81
 -25  -5  22    2.92    6.76
  25   5 -22    3.52    5.07
  25   5 -22    9.08    8.15
 -25  -5  22   -5.64    8.37
  25  -5 -20    4.46    3.29
 -25   5  20    1.07    2.57
  25   5 -20    6.95    6.26
 -25  -5  20    2.92    6.31
 -25  -5  20   21.22    6.52
  25   5 -20    0.38    3.76
 -25   5  18    5.25    2.90
  25  -5 -18    3.55    3.52
  25   5 -18   12.95    2.84
 -25  -5  18   13.04    6.02
 -25  -5  16   16.73    5.27
 -25  -5  16   12.16    2.69
  25  -5 -16    7.52    3.29
 -25   5  16    5.77    3.33
  25   5 -16    9.73    2.75
 -25  -5  14    7.87    3.70
  25  -5 -14    3.91    2.89
 -25   5  14   13.12    3.81
  25  -5 -14    2.72    2.43
 -25   5  14    2.85    2.76
  25  -5 -12   14.95    3.43
  25   5 -12    5.71    1.22
 -25   5  12   15.72    3.43
 -25  -5  12   12.24    1.51
  25  -5 -12   12.88    2.08
 -25   5  12    8.06    2.00
 -25  -5  12   11.76    2.99
 -25  -5  10   16.49    1.45
  25  -5 -10   18.10    3.06
 -25   5  10   24.73    1.82
  25  -5 -10   27.16    1.71
 -25  -5  10   24.71    2.90
  25   5 -10   28.52    2.62
 -25   5   8    8.57    3.02
  25  -5  -8    4.12    2.70
 -25   5   8    4.83    0.97
 -25  -5   8    6.91    2.10
  25  -5  -8    6.49    1.04
 -25   5   6    6.84    3.16
  25  -5  -6    1.05    2.13
  25  -5  -6    3.38    1.16
 -25   5   6    3.67    0.98
 -25  -5   6    9.59    1.90
  25   5  -6    6.77    1.67
  25  -5  -4    2.63    2.60
 -25   5   4    3.12    1.47
 -25  -5   4    3.96    1.89
  25   5  -4   -0.21    1.43
  25  -5  -2   -7.77    4.02
 -25   5   2    1.05    3.18
 -25  -5   2    1.32    1.82
  25   5  -2    3.10    1.69
 -25   5   0    0.34    7.94
  25   5   0   13.40    2.19
  25   5   2   65.93    3.75
 -25  -5  -2   35.19    3.25
  25   5   4   31.14    3.39
 -25  -5  -4   31.21    3.30
 -25  -5  -6   50.13    4.65
  25   5   6   38.25    3.78
 -25   6  11    1.19    1.98
 -25  -6  11    0.83    0.57
  25  -6 -11    0.38    2.07
  25  -6 -11    3.17    1.45
  25   6 -11    1.16    1.78
 -25  -6  11    2.46    2.50
 -25   6   9    6.84    2.47
  25   6  -9    4.29    1.95
 -25  -6   9    9.89    2.10
  25  -6  -9   -0.10    0.97
 -25   6   9    4.36    1.18
  25  -6  -7   -1.08    2.64
 -25   6   7    2.55    2.75
  25  -6  -7    2.95    1.21
 -25  -6   7    3.63    1.97
  25   6  -7    0.68    1.33
 -25   6   5   -0.40    2.25
 -25   6   5   -0.82    1.04
  25  -6  -5    2.12    1.45
 -25  -6   5    3.49    1.73
  25   6  -5    3.46    1.50
  26   0 -32   21.16    6.95
 -26   0  32   16.44    7.25
  26   0 -30   42.21    7.77
 -26   0  30   19.28    6.64
 -26   0  28    9.07    5.42
  26   0 -28   25.87    6.46
  26   0 -26   33.88    6.84
 -26   0  26    9.03    5.98
 -26   0  24   10.66    5.26
  26   0 -24   66.46    8.02
 -26   0  22   26.74    6.70
  26   0 -22   33.93    6.60
 -26   0  20   11.34    5.24
  26   0 -20   86.35    7.80
  26   0 -18  574.13   15.53
 -26   0  18  381.29   13.00
 -26   0  16  202.24    8.74
  26   0 -16  293.31   10.66
 -26   0  14    2.70   10.29
  26   0 -14   -0.57   11.14
  26   0 -12    8.01    6.27
 -26   0  12    1.10    5.96
  26   0 -10    5.36    3.17
 -26   0  10    2.02    2.41
 -26   0  10    2.79    3.88
  26   0 -10    2.05    2.85
 -26   0   8  405.29   10.16
  26   0  -8  485.06    4.82
  26   0  -6   82.17    2.34
 -26   0   6   53.00    2.00
  26   0  -4  245.79    4.19
 -26   0   4  221.82    3.80
  26   0  -2   40.87    3.17
 -26   0   2    9.45    2.69
  26   0   0  505.07   10.21
 -26   0   0  462.42    8.48
  26  -1 -31    2.95    5.06
 -26   1  31   18.71    6.52
  26   1 -31   12.86    6.87
 -26  -1  31    8.16    7.96
  26  -1 -29   11.85    5.88
 -26   1  29    4.38    5.22
  26   1 -29   12.94    5.23
 -26  -1  29   12.10    6.80
  26  -1 -27    4.88    5.12
 -26   1  27   10.49    5.33
  26   1 -27    6.31    5.07
 -26  -1  27   10.27    5.41
 -26   1  25    0.64    4.41
  26  -1 -25   -5.25    5.91
 -26  -1  25    0.57    4.40
  26   1 -23   25.29    6.40
 -26   1  23   37.83    7.69
  26  -1 -23   19.16    6.64
 -26  -1  23   16.51    5.33
  26  -1 -21    5.30    4.74
 -26  -1  21    7.27    5.68
 -26   1  21   15.45    5.29
 -26   1  19   11.78    4.72
  26   1 -19   24.37    5.65
 -26  -1  19   19.19    5.29
  26  -1 -19   22.32    5.02
  26   1 -17   15.35   13.82
 -26   1  17   88.90    6.50
 -26  -1  15   -0.84   13.35
  26   1 -15    5.54   11.12
  26   1 -13    8.36    6.18
 -26  -1  13   10.56    6.84
 -26  -1  11    0.23    4.05
  26   1 -11    8.25    3.67
 -26   1  11  -18.06    7.90
  26  -1 -11    4.54   11.05
  26   1 -11    4.73    2.33
  26  -1 -11    7.76    2.94
 -26   1   9   52.85    4.03
  26  -1  -9   55.91    2.93
 -26   1   7    8.97    1.18
 -26  -1   7    4.39    1.92
  26   1  -5    5.00    1.72
 -26  -1   5    8.12    1.75
 -26   1   5    8.92    1.53
  26  -1  -5    8.78    1.77
 -26  -1   3    8.83    2.32
  26  -1  -3   11.79    3.66
  26   1  -1  190.50    5.50
 -26  -1   1  207.54    5.55
 -26  -1  -1   77.13    4.32
  26   1   1   94.81    4.97
  26   1   3  160.61    7.79
 -26  -1  -3   20.61    5.37
 -26  -1  -5   43.31    6.48
 -26  -2  30    6.27    7.71
  26   2 -30    3.18    6.46
 -26   2  30    6.53    5.47
  26  -2 -30   -2.39    6.02
  26   2 -28    3.99    5.53
 -26  -2  28   22.90    7.08
 -26   2  28   12.16    5.26
  26  -2 -28   -4.47    4.35
  26   2 -26    0.56    4.70
 -26  -2  26    5.57    5.46
  26  -2 -26   14.07    6.75
 -26  -2  24    1.50    4.87
  26   2 -24   15.94    5.55
 -26   2  24   -1.42    4.26
  26  -2 -24   25.98    6.95
  26  -2 -22    2.88    4.00
 -26  -2  22    9.52    4.47
 -26   2  22   18.94    5.40
  26   2 -22    7.90    4.46
  26  -2 -20    9.70    4.17
  26   2 -20    4.23    4.84
 -26   2  20    9.75    4.17
 -26  -2  20   -3.16    3.67
  26   2 -20    7.13   13.94
  26   2 -18    7.43    4.02
 -26  -2  18    9.45    4.49
  26   2 -18    1.16   15.61
 -26  -2  18   -6.25   12.66
 -26   2  18   14.28    3.91
  26   2 -16   49.75    8.58
 -26  -2  16    1.33    7.57
  26   2 -14   12.45    6.19
 -26  -2  14   18.14    6.37
 -26  -2  14    7.72    2.68
  26  -2 -14   21.18    3.92
 -26   2  14   14.57    3.73
  26   2 -14   23.31    3.35
 -26  -2  12    9.30    4.10
  26   2 -12   -0.51    3.56
  26   2 -12    2.17    2.09
  26  -2 -12    8.60    3.30
 -26   2  12    5.81    2.86
 -26  -2  12   12.33    2.43
 -26  -2  10   46.68    3.61
 -26  -2  10   42.04    3.45
  26  -2 -10   58.25    5.24
 -26   2  10   47.44    4.26
  26  -2  -8   13.14    1.43
 -26   2   8   -2.60    3.94
  26  -2  -8   15.73    4.07
  26  -2  -6   34.73    1.43
 -26  -2   6   28.40    2.28
 -26  -2   4   27.60    2.31
  26   2  -4   42.85    2.68
  26   2  -2   30.93    2.76
 -26  -2   2    4.25    2.40
 -26  -2   0    2.12    2.75
  26   2   0   67.65    4.09
 -26  -2  -2   36.27    3.78
  26   2   2   20.25    3.31
 -26  -2  -4   97.72    5.59
  26   2   4  110.41    6.10
 -26  -2  -6    9.18    5.19
  26   2   6   45.29    6.34
 -26  -2  -8   -4.50    6.01
 -26  -3  27   18.05    7.44
  26   3 -27   25.30    7.14
  26  -3 -27   11.52    6.08
 -26   3  27    5.04    5.31
  26   3 -25   -2.12    4.21
 -26  -3  25    5.60    5.84
  26  -3 -25   14.18    5.92
 -26   3  25    3.50    3.77
  26   3 -23    0.69   13.74
 -26   3  23   29.36    6.12
 -26  -3  21  -12.86   10.47
  26   3 -21   12.32   15.80
  26  -3 -21   10.82    4.23
 -26   3  21   11.86    4.54
 -26  -3  21   -0.81    3.28
 -26   3  19    8.13    3.50
  26  -3 -19   -0.85    2.99
 -26  -3  19    4.34   10.44
  26   3 -19    1.98    8.21
 -26  -3  19    6.84    3.70
  26   3 -19   12.93    5.12
  26  -3 -17    0.43    3.39
 -26   3  17    4.23    3.22
  26   3 -17    4.62    3.07
 -26  -3  17    8.06    3.35
  26   3 -17    6.49    6.57
 -26  -3  17    1.26    6.98
 -26  -3  15    8.37    6.00
  26   3 -15   21.78    5.96
 -26   3  15    4.99    3.28
  26   3 -15   16.57    2.76
  26  -3 -15   11.60    3.61
 -26  -3  15    9.74    2.55
 -26  -3  13    7.72    3.93
  26   3 -13    2.86    3.44
 -26  -3  13    6.20    2.03
  26  -3 -13    5.27    2.95
 -26   3  13    5.99    2.71
  26   3 -13    9.89    2.09
  26   3 -11   16.53    2.47
 -26  -3  11   13.70    2.04
 -26  -3   9  123.22    3.98
  26  -3  -9  130.40    7.78
 -26   3   9  131.85    7.49
 -26   3   7    6.45    0.39
 -26  -3   7   10.37    2.26
  26   3  -7   16.01    1.95
  26  -3  -7    3.03    0.52
 -26   3   7    8.39    3.26
  26  -3  -7   16.07    3.39
  26   3  -5   11.45    1.96
 -26  -3   5   25.83    2.36
 -26  -3   3   47.07    2.80
  26   3  -3   38.16    2.72
  26   3  -1    9.71    2.29
 -26  -3   1   28.03    2.87
 -26  -3  -1   28.30    3.05
  26   3   1   74.76    4.14
 -26  -3  -3    5.45    3.17
  26   3   3    4.92    2.84
 -26  -3  -5    5.34    3.03
  26   3   5   19.14    3.54
  26   3   7   26.11    4.78
 -26  -3  -7   34.82    4.62
 -26  -3  -9    6.53    5.13
  26   3   9   21.75    5.93
 -26  -3 -11   27.55    6.74
  26   4 -26   19.78   14.65
 -26  -4  24   23.20    7.07
  26   4 -24    5.29    4.93
 -26  -4  24   -2.07    9.57
  26   4 -24   37.29   15.15
  26  -4 -24   26.27    5.87
 -26   4  24    3.63    4.24
  26   4 -22   -3.25    3.23
 -26  -4  22   -0.48    4.22
  26  -4 -22    5.96    4.26
 -26   4  22   -1.19    3.66
 -26  -4  22   -0.80   13.24
  26   4 -22    4.08   11.78
  26  -4 -20   -1.88    2.66
 -26   4  20   -0.51    3.32
 -26  -4  20   10.67    3.93
  26   4 -20   10.76    3.59
  26   4 -20    0.82    7.47
 -26  -4  20   -4.02    6.81
 -26   4  18    0.46    2.41
  26  -4 -18    5.71    3.47
 -26  -4  18   -1.03    6.33
 -26  -4  18    3.35    3.10
  26   4 -18   13.48    3.72
  26   4 -18   19.78    6.02
 -26   4  16   32.46    4.86
 -26  -4  16   30.02    3.61
  26   4 -16   53.45    4.34
 -26  -4  16   54.27    6.76
  26  -4 -16   54.49    5.98
  26   4 -14    5.09    3.26
 -26  -4  14    8.88    3.69
  26  -4 -14   11.36    2.97
  26   4 -14   15.25    2.32
 -26  -4  14    3.06    1.66
 -26   4  14   15.58    3.50
 -26  -4  12    5.75    2.69
  26  -4 -12    5.79    3.55
  26  -4 -12    7.36    2.76
 -26   4  12    2.08    2.46
 -26  -4  12    7.82    1.58
  26   4 -12    2.95    1.38
 -26   4  10   14.83    2.95
 -26  -4  10    9.31    1.78
  26  -4 -10   13.31    3.36
  26  -4  -8   12.48    4.19
 -26   4   8    0.37    2.20
 -26  -4   8    1.46    2.00
  26   4  -8    9.90    2.19
 -26   4   8    6.25    0.91
  26  -4  -8    6.18    0.83
 -26   4   6    3.28    2.32
 -26   4   6    1.95    0.87
  26  -4  -6    3.34    1.27
 -26  -4   6    3.71    1.77
  26   4  -6    4.22    1.61
 -26   4   4   11.98    3.06
 -26  -4   4   14.94    2.08
  26   4  -4    6.66    1.74
  26   4  -2    5.38    1.88
 -26  -4   2    2.92    1.97
  26   4   0   33.87    3.16
 -26  -4   0   17.67    2.86
 -26  -4  -2   17.17    2.80
  26   4   2   12.77    2.54
 -26  -4  -4   18.99    3.29
  26   4   4    6.11    2.79
  26   4   6    2.84    2.65
 -26  -4  -6    0.19    3.05
 -26  -4  -8   -1.64    3.15
  26   4   8    8.32    3.63
 -26  -5  21   -3.98    6.43
  26   5 -21    1.31    6.69
 -26   5  19   11.73    3.59
  26  -5 -19    2.64    3.03
  26   5 -19    0.27    2.69
 -26  -5  19    0.35    3.56
  26   5 -19    8.38    6.16
 -26  -5  19   12.21    6.04
  26  -5 -17    1.52    2.87
 -26   5  17    1.95    2.88
 -26  -5  17    5.61    2.53
  26   5 -17    6.47    2.51
 -26  -5  17    0.33    5.02
  26   5 -17    3.85    4.48
  26  -5 -15   15.01    3.74
 -26   5  15   18.08    3.83
  26  -5 -15    5.03    3.92
 -26  -5  13    1.02    2.74
  26   5 -13   -1.71    2.28
 -26   5  13   -0.66    2.62
  26  -5 -13   -0.79    2.05
 -26  -5  13    5.90    1.26
 -26   5  13    5.98    2.67
  26   5 -13    3.73    1.32
 -26  -5  11    6.18    2.59
  26   5 -11    9.23    2.43
 -26   5  11    6.82    2.71
  26   5 -11   13.33    1.80
 -26  -5  11    7.09    1.10
  26  -5 -11    8.84    2.67
  26  -5 -11   11.86    1.62
  26   5  -9    0.13    1.74
 -26  -5   9   -1.18    1.91
  26  -5  -9   -0.83    2.44
 -26   5   9    0.37    2.00
  26  -5  -7    4.26    2.63
  26  -5  -7    4.96    1.10
 -26  -5   7    6.29    2.19
  26   5  -7    7.05    1.61
 -26   5   7    6.45    0.90
 -26  -5   5    4.90    1.71
  26  -5  -5    4.12    1.65
 -26   5   5    5.73    1.34
  26   5  -3    1.98    1.50
 -26  -5   3    3.12    1.74
  26  -5  -3   -0.55    3.69
 -26   5   3    5.79    2.96
 -26  -5   1    0.50    1.95
  26   5  -1    8.48    1.97
 -26   5   1   10.22    6.22
  26  -5  -1    8.38    7.16
 -26  -5  -1    7.56    2.61
  26   5   1    3.32    1.99
 -26  -5  -3    5.51    2.50
  26   5   3   10.08    2.50
  27   0 -31   19.92    6.63
 -27   0  31    1.58    5.37
 -27   0  29    6.05    4.70
  27   0 -29   -4.15    3.92
  27   0 -27   -1.95    4.37
 -27   0  27    4.04    5.17
 -27   0  25   -2.48    4.75
  27   0 -25   12.70    5.85
 -27   0  23    6.74    5.72
  27   0 -23   28.09    6.52
  27   0 -21    5.55    4.97
 -27   0  21   -3.13    4.27
 -27   0  19    9.74    4.50
  27   0 -19   10.01    4.77
  27   0 -17   14.68    4.17
 -27   0  17   38.73    4.66
  27   0 -15    0.32   11.55
 -27   0  15   -1.56    2.92
  27   0 -15    7.44    3.43
 -27   0  13    1.67   10.41
  27   0 -13    0.33    6.51
  27   0 -13    4.76    2.85
 -27   0  13    6.01    2.74
 -27   0  11    6.70    2.57
  27   0 -11    2.05    2.48
 -27   0  11   -0.62    4.58
  27   0 -11   -0.65    3.82
  27   0  -9   -3.91    3.03
  27   0  -9    2.56    1.88
 -27   0   9   -0.06    2.01
 -27   0   7    2.06    1.34
  27   0  -7    3.99    1.32
 -27   0   5    4.22    1.66
  27   0  -5    3.15    1.68
  27   0  -3    4.42    2.49
 -27   0   3   12.96    2.27
  27   0  -1   16.11    3.52
 -27   0   1    9.87    2.94
 -27   0  -1    7.40    4.96
  27  -1 -30    1.53    4.72
 -27   1  30    1.51    4.83
  27   1 -30    7.72    5.48
 -27  -1  30    3.88    6.06
 -27   1  28    8.70    5.02
  27  -1 -28    2.88    5.25
  27   1 -28    6.02    5.00
 -27  -1  28    1.98    5.07
 -27   1  26   21.27    5.87
  27   1 -26   39.91    7.07
 -27  -1  26   22.49    5.92
  27   1 -24    3.25    4.43
 -27   1  24    9.16    5.89
  27  -1 -24    2.46    4.95
 -27  -1  24    8.35    4.52
  27  -1 -22    3.37    4.76
 -27  -1  22   -0.59    4.51
 -27   1  22    0.58    3.81
 -27   1  20    5.03    3.93
  27   1 -20    4.90    4.17
 -27  -1  20    0.46    3.88
  27  -1 -18   -0.73    3.36
 -27   1  18    5.25    3.21
  27   1 -18   -0.46   13.27
 -27  -1  18    1.77    2.88
  27   1 -18    6.78    3.91
  27   1 -16    0.44   13.25
 -27  -1  16  -12.60   11.46
 -27  -1  14    2.13    6.73
  27   1 -14   -2.66    5.67
  27  -1 -14    3.64    2.96
  27   1 -14   -1.20    2.23
 -27   1  14   -0.30    2.49
 -27  -1  14    8.31    2.69
 -27  -1  12   36.05    6.22
  27  -1 -12   28.18    9.34
 -27   1  10   15.29    4.41
 -27  -1  10   28.19    3.13
  27  -1  -8   10.34    1.30
 -27   1   8    3.95    1.54
 -27   1   8    8.47    3.19
 -27  -1   8   10.28    1.97
  27   1  -8   11.16    1.97
 -27   1   6   10.40    1.12
  27   1  -6   10.47    1.69
 -27  -1   6    9.54    1.65
  27  -1  -4    9.84    2.12
 -27   1   4    0.86    1.89
 -27  -1   2   72.61    3.48
 -27   1   2  107.86    5.07
  27   1   0   25.64    3.31
 -27  -1   0   10.38    3.07
 -27  -1  -2   98.24    5.28
  27   1   2   70.90    5.58
 -27  -1  -4   22.10    5.81
  27   1   4    8.87    5.85
  27   2 -29    2.03    4.88
 -27  -2  29    2.36    6.20
 -27   2  29    2.35    5.02
  27  -2 -29    5.43    5.70
  27   2 -27   -5.18    4.11
 -27  -2  27    9.65    5.83
  27  -2 -27    2.76    5.05
 -27   2  27    8.90    5.30
 -27  -2  25   14.68    4.86
  27   2 -25   13.15    4.76
 -27   2  25   13.65    5.36
  27  -2 -25   30.52    6.90
  27  -2 -23   19.21    5.44
 -27  -2  23   13.02    5.28
 -27   2  23   23.02    5.72
  27   2 -23   21.51    5.20
  27   2 -21    1.80   14.13
  27  -2 -21   16.39    4.46
 -27   2  21    4.58    4.17
  27   2 -21   20.27    5.32
 -27  -2  21   13.06    4.66
 -27  -2  19   -1.91   10.17
  27   2 -19   -5.13   15.23
 -27  -2  19    5.32    3.80
  27  -2 -17   13.83    4.27
 -27   2  17   13.81    4.03
  27   2 -17    4.30    2.97
 -27  -2  17    2.12    2.83
 -27  -2  17   -2.00    9.93
  27   2 -17    4.08    7.39
 -27  -2  15    4.62    6.06
  27   2 -15    0.23    5.77
  27   2 -15    7.30    3.04
  27  -2 -15    1.72    3.32
 -27  -2  15    3.39    2.60
 -27   2  15   -1.05    2.59
 -27  -2  13    2.78    5.05
  27   2 -13    9.08    4.25
  27  -2 -13    3.11    2.71
  27   2 -13    6.63    2.40
 -27   2  13    5.97    2.97
 -27  -2  13    0.95    1.86
  27  -2 -11    4.88    2.57
 -27  -2  11    3.31    1.71
 -27   2  11   10.61    2.99
 -27  -2  11    1.75    2.65
  27   2 -11    3.58    2.72
  27  -2  -9    0.26    3.16
 -27   2   9   -0.96    2.49
 -27  -2   9    1.20    1.78
  27   2  -7   28.14    2.18
 -27   2   7   12.23    0.58
 -27  -2   5   45.88    2.45
  27   2  -5   58.10    2.69
 -27   2   5   59.54    2.78
  27   2  -3  181.33    4.55
 -27  -2   3  239.19    5.06
 -27  -2   1   12.82    2.48
  27   2  -1    4.15    2.33
 -27  -2  -1   51.50    4.17
  27   2   1   63.57    4.13
  27   2   3   18.17    3.72
 -27  -2  -3   14.66    3.38
  27   2   5   74.48    6.15
 -27  -2  -5   55.43    5.13
 -27  -2  -7   14.46    5.70
  27   2   7   29.50    6.32
 -27  -3  28   -3.91    5.74
  27   3 -28   -2.73    4.83
  27  -3 -28    4.57    6.20
 -27   3  28   -0.85    4.48
  27   3 -26    2.75    4.00
 -27  -3  26    2.56    5.04
 -27   3  26    7.19    5.30
  27  -3 -26    2.26    5.04
  27   3 -24    5.18   13.54
  27   3 -24   24.42    5.12
 -27  -3  24    5.08    4.46
  27  -3 -24   31.60    6.55
 -27   3  24   16.08    5.37
 -27  -3  22   -4.19    9.03
  27   3 -22  -11.01   13.74
 -27   3  22    4.52    3.70
  27   3 -22    8.05    4.02
 -27  -3  22   -0.43    3.31
  27  -3 -20    4.88    3.29
 -27   3  20    5.74    3.61
 -27  -3  20    0.67   12.36
  27   3 -20   19.98   11.28
 -27  -3  20    5.42    3.22
  27   3 -20   11.41    4.59
 -27  -3  18   37.29    4.69
 -27  -3  18   20.42    7.43
 -27  -3  16    0.50    2.29
  27   3 -16    2.78    6.00
 -27  -3  16   -0.52    5.46
 -27   3  16    7.59    3.47
  27  -3 -16    6.42    3.45
 -27  -3  14    0.84    4.45
  27   3 -14    1.54    3.29
 -27  -3  14   -0.40    1.61
 -27   3  14    3.46    2.90
  27   3 -14   -1.66    1.91
 -27  -3  12    2.14    1.56
 -27  -3  12    0.63    2.75
  27   3 -12    4.88    2.96
 -27   3  10    8.07    2.80
  27  -3 -10    7.11    3.22
 -27  -3  10   15.10    2.57
  27   3 -10    4.04    2.02
 -27  -3  10   14.45    2.61
  27  -3  -8    0.37    3.23
 -27   3   8   -1.69    3.08
 -27  -3   8    6.06    2.21
  27   3  -8    5.45    1.95
 -27  -3   6   51.50    2.65
 -27   3   6    7.37    2.19
 -27  -3   4   19.81    2.22
  27   3  -4   21.80    2.26
 -27  -3   2   11.56    2.38
  27   3  -2   21.49    2.47
 -27  -3   0    1.01    2.23
  27   3   0    1.21    2.10
  27   3   2   18.28    3.13
 -27  -3  -2   19.10    3.32
  27   3   4   21.89    3.42
 -27  -3  -4   27.03    3.78
 -27  -3  -6    2.81    3.42
  27   3   6   -0.63    3.13
  27   3   8    6.81    4.90
 -27  -3  -8    2.63    4.14
 -27  -3 -10    2.98    5.29
  27   3  10    1.79    6.19
 -27  -4  25   23.50    7.27
  27   4 -25   16.76    5.38
 -27  -4  25   -7.94    9.33
  27   4 -25   17.22   13.12
  27  -4 -25    7.30    5.01
 -27   4  25    2.28    4.49
  27   4 -23    5.88    3.89
 -27  -4  23    5.08    5.03
  27  -4 -23   -1.86    3.83
 -27   4  23    1.85    3.43
  27   4 -23   26.81   13.09
 -27  -4  23  -16.59   11.49
 -27  -4  21    6.77    3.47
  27   4 -21   10.51    3.70
  27   4 -21    4.72    6.92
 -27  -4  21    5.41    8.65
 -27   4  21   19.04    4.49
 -27   4  19   -0.46    2.69
  27  -4 -19    1.00    2.91
 -27  -4  19   15.14    3.59
  27   4 -19    7.27    3.01
 -27  -4  19    5.53    5.86
  27   4 -19   17.73    6.71
  27   4 -17    1.32    2.60
 -27  -4  17    6.91    2.81
  27  -4 -17   15.70    4.26
 -27   4  17    1.86    3.02
 -27  -4  17    6.95    5.78
  27   4 -17    2.82    5.49
 -27  -4  15    1.77    1.72
  27  -4 -15    3.55    2.65
 -27   4  15    0.80    2.43
 -27  -4  13    1.95    2.80
  27  -4 -13    0.74    2.31
 -27   4  13    1.06    2.56
 -27  -4  13    4.37    1.58
 -27  -4  11   20.81    2.90
 -27   4  11   27.78    3.74
 -27  -4  11   21.52    1.90
  27  -4 -11   18.22    3.35
  27  -4 -11   19.01    2.03
 -27   4   9    6.79    2.72
  27  -4  -9    6.00    2.88
  27   4  -9    8.70    1.92
 -27   4   9    9.18    1.25
 -27  -4   9    4.67    2.07
 -27   4   7   17.38    3.79
  27  -4  -7   16.00    3.35
 -27   4   7   10.38    0.72
  27  -4  -7    7.12    0.97
 -27  -4   7   14.78    2.04
 -27   4   5    6.59    2.35
  27  -4  -5   11.42    3.20
 -27  -4   3   35.38    2.61
  27   4  -3   39.55    2.62
  27   4  -1   28.22    2.65
 -27  -4   1   30.18    2.90
 -27  -4  -1    3.13    2.24
  27   4   1    8.48    2.25
  27   4   3   13.74    2.89
 -27  -4  -3   16.50    2.97
 -27  -4  -5   14.60    3.23
  27   4   5    8.19    2.90
 -27  -4  -7    0.20    3.02
  27   4   7    9.06    3.14
  27  -5 -18    6.43    3.63
 -27   5  18    0.50    2.49
  27   5 -18   15.64    2.98
 -27  -5  18   -1.06    5.45
  27   5 -18   16.76    5.39
 -27  -5  18    4.16    2.70
  27  -5 -16   -1.79    2.79
 -27   5  16   -1.84    2.01
 -27  -5  16    6.29    4.23
  27   5 -16    8.98    3.95
 -27  -5  16    6.31    2.63
  27   5 -16    0.40    1.98
 -27  -5  14    0.18    2.76
  27  -5 -14    3.27    2.54
 -27   5  14    0.72    3.40
 -27  -5  14   -1.13    1.11
  27   5 -14    5.83    1.51
  27  -5 -14    4.01    2.78
 -27   5  14    4.27    2.69
  27   5 -12    6.58    2.35
 -27  -5  12   -0.16    2.50
 -27   5  12   -1.93    1.77
  27  -5 -12    6.47    2.82
  27  -5 -12    7.03    1.74
 -27   5  12    1.29    1.64
  27   5 -10    1.96    1.72
  27  -5 -10    3.91    1.17
 -27  -5  10    4.20    2.11
  27  -5 -10    9.13    3.32
 -27   5  10    2.33    2.13
 -27   5  10    8.95    1.24
  27  -5  -8    5.78    3.64
 -27   5   8   11.11    3.34
 -27   5   8   10.22    0.93
 -27  -5   8    9.31    2.09
  27   5  -8    9.46    1.88
  27  -5  -8    7.63    0.96
 -27   5   6    6.73    2.48
 -27  -5   6    0.85    1.68
  27   5  -6    1.20    1.40
  27  -5  -6    2.59    1.30
 -27   5   6   -0.22    0.86
 -27  -5   4    0.54    1.61
  27   5  -4    0.22    1.28
  27  -5  -4   -0.67    2.90
 -27   5   4    3.75    2.05
 -27   5   2   15.16    3.72
  27  -5  -2   18.38    7.70
 -27  -5   2    7.39    2.05
  27   5  -2    6.66    1.80
  27   5   0    9.27    2.24
 -27  -5   0   12.29    2.42
 -27  -5  -2    0.45    2.20
  27   5   2    6.20    2.06
 -28   0  30   -6.96    3.41
  28   0 -30   11.47    5.32
  28   0 -28   49.98    7.61
 -28   0  28   22.34    6.13
 -28   0  26    2.58    4.82
  28   0 -26    8.33    5.05
  28   0 -24   17.56    5.99
 -28   0  24    2.22    5.14
  28   0 -22   39.50    6.36
 -28   0  22   25.99    5.90
  28   0 -20  171.68    9.64
 -28   0  20   68.27    6.60
  28   0 -18   11.60    3.77
 -28   0  18   16.90    3.60
 -28   0  16   45.06    4.97
  28   0 -16   63.92    5.60
  28   0 -14    9.66    9.79
 -28   0  14   -5.50    9.54
  28   0 -12   -2.60    4.41
 -28   0  12    0.57    4.73
 -28   0  12    4.76    2.26
  28   0 -10    3.77    2.01
 -28   0  10    2.00    2.31
  28   0  -8   30.95    1.80
 -28   0   8   16.72    1.75
 -28   0   6    7.56    1.38
  28   0  -6   13.33    1.58
  28   0  -4  179.24    3.97
 -28   0   4  184.18    3.77
 -28   0   2   28.25    2.86
  28   0  -2   60.91    3.32
  28   0   0   18.47    4.96
 -28   0   0   16.88    3.92
 -28   1  29    0.75    4.92
  28  -1 -29   12.67    5.68
  28   1 -29   11.23    5.40
 -28  -1  29   12.35    5.18
 -28   1  27    1.38    3.97
  28  -1 -27   16.41    6.15
  28   1 -27    8.67    5.33
 -28  -1  27   -1.23    4.23
  28   1 -25   13.00    5.24
 -28  -1  25   -0.58    3.13
 -28   1  25    2.24    5.28
  28   1 -23    3.02    5.06
 -28  -1  23   -7.16    3.87
 -28   1  23    3.04    4.22
  28  -1 -21   14.01    4.78
 -28   1  21    1.45    3.34
  28   1 -21   10.97    4.72
 -28  -1  21    8.92    4.15
 -28   1  19    2.63    3.01
  28  -1 -19   16.78    4.00
 -28  -1  19    9.40    3.45
 -28  -1  17   -2.33    9.66
  28   1 -17   17.30   14.84
  28   1 -17   16.04    3.66
  28  -1 -17   -1.90    3.05
 -28   1  17    4.40    3.50
  28   1 -15   -1.15    6.99
 -28  -1  15   -0.25    6.77
 -28  -1  15    6.76    3.02
  28  -1 -15    2.86    2.89
  28   1 -15   -0.78    2.42
 -28   1  15    2.85    2.83
 -28  -1  13   18.74    5.64
  28   1 -13   13.85    5.33
 -28  -1  11   20.09    3.12
 -28   1  11   -0.15    6.48
  28  -1 -11   23.25    4.50
 -28  -1   9   30.54    2.45
 -28   1   9   10.99    1.90
  28  -1  -9   33.69    1.94
  28  -1  -9   37.10    4.51
 -28  -1   9   35.69    3.47
 -28  -1   7   13.80    1.57
  28   1  -7    9.18    1.55
 -28  -1   5   39.96    2.17
  28   1  -5   33.25    2.26
 -28   1   5   39.14    1.82
  28  -1  -5   37.85    2.30
  28   1  -3   20.87    2.35
 -28  -1   3   27.37    2.48
 -28   1   3   26.39    2.65
  28  -1  -3   17.91    3.40
 -28  -1   1   -0.20    2.69
  28   1  -1    4.14    2.47
 -28  -1  -1   19.92    3.33
  28   1   1   24.97    3.65
  28   1   3  152.74    7.87
 -28  -1  -3  141.51    6.99
 -28  -1  -5    7.10    5.64
  28  -2 -28    2.86    5.55
 -28   2  28    9.81    5.23
  28   2 -28    5.81    4.43
 -28  -2  28    4.67    5.38
 -28   2  26   13.00    5.51
  28  -2 -26    8.51    5.72
 -28  -2  26    2.17    3.88
  28   2 -26   -0.55    3.39
  28  -2 -24    1.95    4.36
 -28  -2  24    5.78    4.30
  28   2 -24    5.13    4.56
 -28   2  24   -0.67    3.13
  28  -2 -22   -3.76    2.74
 -28   2  22    4.27    3.92
 -28  -2  22    3.35    3.88
  28  -2 -20   20.87    4.28
 -28   2  20   15.52    4.18
 -28  -2  20    3.55    9.99
  28   2 -20    7.54   12.79
 -28  -2  20    7.24    4.06
 -28  -2  18    7.90   12.09
  28   2 -18    2.71    9.10
  28   2 -16    0.78    5.94
 -28  -2  16   -0.27    6.28
 -28   2  16    6.17    3.25
 -28  -2  16    7.51    2.49
  28   2 -16   -1.30    2.30
  28  -2 -16   10.26    3.70
  28   2 -14   12.93    2.45
 -28   2  14    9.76    3.00
 -28  -2  14    6.68    2.23
 -28  -2  14    8.30    5.25
  28   2 -14    8.33    4.62
 -28   2  12    7.02    2.95
 -28  -2  12    8.58    2.26
  28   2 -12   11.42    2.87
 -28  -2  12    3.16    2.94
  28  -2 -12   16.84    3.31
 -28  -2  10   37.65    3.08
  28   2 -10   50.76    3.67
 -28  -2  10   63.02    4.69
  28  -2 -10   57.19    5.30
 -28   2  10   53.63    5.03
 -28   2   8    0.02    0.96
 -28   2   8    8.41    3.23
  28  -2  -8   -1.45    2.34
 -28  -2   8    4.81    1.92
  28   2  -8    5.58    1.80
  28  -2  -8    2.98    0.60
 -28  -2   6   21.16    1.98
  28   2  -6   16.63    1.96
 -28  -2   4   32.55    2.43
  28   2  -4   48.03    2.69
  28   2  -2  221.21    5.03
 -28  -2   2   93.45    3.58
  28   2   0   15.34    2.88
 -28  -2   0    7.08    2.65
  28   2   2    8.31    2.96
 -28  -2  -2   10.60    3.13
  28   2   4   24.49    4.16
 -28  -2  -4   36.55    4.32
 -28  -2  -6   15.97    5.16
  28   2   6   45.71    6.18
 -28  -2  -8    1.57    5.64
  28   3 -27    5.10    4.32
 -28  -3  27    9.35    5.83
 -28   3  27   -8.51    3.51
  28  -3 -27    8.58    5.23
  28   3 -25   16.30    4.63
 -28  -3  25   -0.53    4.22
  28  -3 -25   18.42    6.05
 -28   3  25    0.73    3.41
 -28  -3  23   10.79    8.95
  28   3 -23   17.28   13.44
  28  -3 -23    4.14    4.05
 -28   3  23    4.11    3.67
 -28  -3  23    7.30    3.79
  28   3 -21   -0.62   11.34
 -28  -3  21  -19.52   11.50
  28  -3 -19   -0.47    2.65
  28   3 -19    2.14    3.43
 -28  -3  19    2.81    2.88
  28   3 -19    0.72    6.85
 -28  -3  19    7.81    6.63
  28  -3 -17   24.61    4.73
 -28   3  17   21.17    4.45
  28   3 -17   19.89    3.09
 -28  -3  17   12.87    2.77
 -28  -3  17   17.54    6.03
 -28  -3  15    0.50    4.92
  28   3 -15   10.22    4.59
  28   3 -15   -0.22    1.89
  28  -3 -15   -2.13    2.38
 -28   3  15    5.17    2.79
 -28  -3  15    4.52    2.09
 -28   3  13   44.23    4.67
 -28  -3  13   49.65    3.25
  28   3 -13   54.32    3.49
  28   3 -13   57.18    3.93
 -28  -3  11   30.18    2.79
  28  -3 -11   40.14    4.27
 -28   3  11   33.74    3.86
  28  -3  -9   13.44    4.06
 -28   3   9   10.77    3.11
  28   3  -9   10.75    2.03
 -28  -3   9   10.03    2.13
 -28   3   7    0.38    0.26
 -28   3   7    7.48    2.72
  28   3  -7    6.02    1.58
 -28  -3   5   48.27    2.58
  28   3  -5   38.90    2.33
  28   3  -3   14.16    2.17
 -28  -3   3   10.55    1.92
  28   3  -1   26.72    2.74
 -28  -3   1   30.58    2.79
 -28  -3  -1   54.89    3.49
  28   3   1   19.89    3.04
 -28  -3  -3   30.20    3.65
  28   3   3   17.47    3.04
  28   3   5    5.11    3.38
 -28  -3  -5    3.49    3.03
 -28  -3  -7   14.47    4.13
  28   3   7    7.45    4.54
 -28  -3  -9    2.63    4.78
  28   3   9   17.65    5.73
  28   4 -24   -2.65   14.86
 -28  -4  24    8.23   10.42
  28  -4 -24    5.80    4.23
 -28   4  24   -0.64    3.27
  28   4 -24   -0.44    3.14
 -28  -4  24    0.53    4.71
 -28  -4  22   -5.22   10.38
  28   4 -22   10.36    7.65
  28   4 -22    1.17    3.37
 -28   4  22   -2.32    2.95
 -28  -4  22   -1.18    3.42
  28  -4 -22    4.14    3.23
  28  -4 -20    0.52    3.10
 -28   4  20   -0.93    2.37
 -28  -4  20    5.67    3.01
  28   4 -20    3.91    3.47
 -28  -4  20    5.48    6.15
  28   4 -20    8.51    6.60
 -28  -4  18    4.55    2.86
  28   4 -18    3.83    2.57
  28   4 -18   19.00    6.25
 -28  -4  18    3.14    5.39
  28  -4 -18   10.09    3.64
 -28   4  18    7.11    3.45
 -28  -4  16   19.19    2.81
  28   4 -16   31.09    2.93
  28  -4 -16   17.23    3.92
 -28   4  16   28.93    4.44
 -28  -4  16   27.45    5.55
  28  -4 -14   17.43    3.60
 -28  -4  14   13.65    2.13
 -28   4  14    6.84    2.74
  28   4 -14    8.11    1.82
  28   4 -14   15.66    2.92
 -28  -4  14   15.74    3.55
 -28   4  12   13.02    3.07
 -28  -4  12    1.02    1.17
  28   4 -12    1.12    2.36
 -28  -4  12    5.13    2.83
  28  -4 -12   -0.09    2.90
  28  -4 -12    5.20    2.55
  28   4 -12   12.88    1.97
  28   4 -10    4.44    1.83
 -28  -4  10    1.63    1.94
  28  -4 -10    4.84    2.62
 -28   4  10    0.35    1.88
  28  -4 -10    3.22    1.16
  28  -4  -8   -0.41    2.34
 -28   4   8    4.48    2.94
  28  -4  -8    3.03    0.64
 -28  -4   8    0.31    1.79
  28   4  -8    2.58    1.68
 -28   4   6    2.44    1.03
 -28  -4   6   10.20    1.91
 -28   4   4   11.00    5.78
  28   4  -4   12.94    1.96
 -28  -4   4    5.29    1.63
  28   4  -2   18.34    2.38
 -28  -4   2    8.76    2.05
 -28  -4   0   13.80    2.56
  28   4   0    6.89    2.19
 -28  -4  -2   20.73    2.86
  28   4   2    5.52    2.46
 -28  -4  -4    1.77    2.83
  28   4   4   -1.63    2.36
  28   4   6   14.95    3.29
 -28  -4  -6   10.22    3.43
 -28  -5  17    4.28    2.75
  28   5 -17    3.26    2.07
 -28   5  17    7.02    3.09
  28  -5 -17   10.81    3.52
 -28  -5  17    4.20    4.56
  28   5 -17   10.68    3.90
  28  -5 -15    8.22    3.16
 -28   5  15    9.34    3.12
  28   5 -15    5.32    1.59
  28   5 -15    2.55    2.80
 -28  -5  15   10.06    3.49
  28  -5 -15    3.64    3.46
 -28  -5  15    9.63    1.97
  28  -5 -13    0.22    1.69
 -28   5  13    3.41    2.44
  28   5 -13    4.91    2.64
 -28  -5  13    2.14    2.71
  28  -5 -13    1.99    2.36
 -28   5  13   -1.19    1.72
 -28  -5  13    0.82    1.10
  28   5 -13    3.53    1.23
  28  -5 -11    3.26    2.32
 -28   5  11    2.87    2.21
 -28   5  11    5.43    1.56
 -28  -5  11    3.65    2.21
  28   5 -11    0.49    1.71
 -28   5   9   15.38    3.57
  28  -5  -9   14.48    3.59
 -28  -5   9    4.73    2.10
  28  -5  -7   -1.41    1.00
 -28   5   7   -2.45    2.19
  28  -5  -7    0.75    2.10
 -28   5   7    2.29    0.82
 -28  -5   7    1.93    1.86
  28   5  -7    3.36    1.57
  28   5  -5    8.63    1.66
 -28  -5   5   10.10    1.91
  28  -5  -5    8.25    2.67
 -28   5   5    0.26    1.26
 -28   5   3    2.00    3.10
  28  -5  -3   18.91    6.69
  28   5  -3    3.17    1.59
 -28  -5   3    2.53    1.74
  28   5  -1   -0.85    1.64
 -28   5   1    1.48    5.74
 -28  -5   1    3.35    2.08
  29   0 -29    0.70    4.37
 -29   0  29   -4.34    3.69
 -29   0  27    1.34    4.24
  29   0 -27    8.65    5.11
  29   0 -25   -5.94    4.71
 -29   0  25   -1.48    4.12
  29   0 -23    5.65    4.86
 -29   0  23    5.82    4.12
  29   0 -21   22.60    5.17
 -29   0  21    2.27    3.65
  29   0 -19    6.92    3.17
 -29   0  19   19.17    3.99
  29   0 -17    7.85    3.27
 -29   0  17   -1.68    2.16
 -29   0  15    0.89    8.34
  29   0 -15  -25.41   12.24
 -29   0  13   -8.01    5.20
  29   0 -13    0.77    4.61
 -29   0  13    4.39    2.49
  29   0 -13    6.39    2.67
 -29   0  11    5.92    2.61
 -29   0  11    0.41    3.23
  29   0 -11    0.96    2.21
  29   0  -9    3.24    1.36
 -29   0   9   -1.56    2.09
 -29   0   9    0.67    1.64
  29   0  -7    3.78    1.30
 -29   0   7    2.67    1.16
  29   0  -5   27.49    1.92
 -29   0   5    6.53    1.62
  29   0  -3    1.16    2.13
 -29   0   3    8.16    2.12
  29   0  -1    5.49    2.88
 -29   0   1    5.64    2.74
 -29   0  -1   21.84    4.64
 -29   1  30   -2.32    4.10
  29  -1 -30   16.15    5.75
  29   1 -30   -0.64    4.37
 -29  -1  30    4.91    4.60
 -29   1  28    4.29    4.17
  29   1 -28    5.79    4.60
 -29  -1  28    5.13    5.09
  29   1 -26   22.39    5.77
 -29  -1  26    1.21    4.19
 -29   1  26    4.82    4.95
  29  -1 -26   13.82    5.35
  29   1 -24   11.19    5.38
  29  -1 -24    5.62    4.50
 -29  -1  24    9.73    4.83
 -29   1  24    2.56    4.24
  29  -1 -22   18.73    4.88
 -29   1  22    3.54    3.61
  29   1 -22   13.67    4.78
 -29  -1  22    2.55    3.46
  29  -1 -20    5.08    3.43
  29   1 -20   11.52    3.93
 -29  -1  20    2.40    3.10
 -29   1  20    0.86    3.26
 -29  -1  18   -7.94    8.60
  29   1 -18    7.24   11.88
 -29   1  18   -3.07    2.27
  29   1 -18    7.50    3.03
  29  -1 -18    9.79    3.70
 -29  -1  18    1.19    2.30
 -29  -1  16   -5.96   10.01
  29   1 -16    4.62    6.73
 -29  -1  14    0.20    4.90
  29   1 -14   -0.96    5.43
  29  -1 -14   16.57    3.35
 -29   1  14   16.52    3.25
 -29  -1  14   14.59    2.79
 -29  -1  12    0.47    3.22
  29  -1 -12    0.25    4.88
 -29   1  12   -0.46    8.35
  29   1 -10   -1.43    2.16
 -29   1  10    0.31    2.42
  29   1 -10    0.42    1.84
 -29   1  10    4.54    3.18
  29  -1 -10    3.34    1.81
 -29  -1  10    1.37    2.26
 -29   1   8    9.17    1.23
 -29  -1   8    7.92    1.76
  29   1  -8    4.74    1.43
 -29  -1   6    4.79    1.50
  29   1  -6    8.36    1.60
  29  -1  -6    8.19    1.40
  29   1  -4   75.28    3.08
 -29   1   4   88.50    2.93
 -29  -1   2   22.28    2.42
 -29   1   2   12.23    3.63
  29   1   0   19.64    3.01
 -29  -1   0   14.18    3.08
 -29  -1  -2   17.39    3.65
  29   1   2   27.07    4.74
 -29  -1  -4   10.52    4.88
  29   1   4    4.42    5.56
 -29   2  27   -2.48    3.60
  29  -2 -27   13.72    5.87
 -29  -2  27   -3.97    3.63
  29   2 -27    2.31    4.36
  29  -2 -25   16.43    5.60
  29   2 -25    2.69    4.36
 -29  -2  25    2.21    3.78
 -29   2  25    8.38    4.94
  29  -2 -23    5.59    4.14
  29   2 -23   18.18    5.45
 -29   2  23    9.02    3.82
 -29  -2  23    1.49    3.39
  29  -2 -21   19.74    4.07
 -29  -2  21   -0.55    9.66
  29   2 -21   20.40   12.22
  29   2 -21   10.27    3.84
 -29  -2  21    5.27    3.56
 -29   2  21   -2.48    2.93
 -29   2  19   14.77    3.78
  29  -2 -19    4.84    3.55
  29   2 -19    4.03   11.24
 -29  -2  19    9.24   12.51
  29   2 -19   16.66    3.83
 -29  -2  19    6.63    3.02
 -29  -2  17    7.18    6.63
  29   2 -17    5.40    6.20
 -29   2  17    5.85    3.37
  29   2 -17    2.52    2.49
 -29  -2  17    2.57    2.18
 -29  -2  15    0.44    4.86
  29   2 -15    6.62    5.60
  29  -2 -15    8.17    2.88
 -29  -2  13    8.73    3.62
  29   2 -13   15.09    2.87
 -29   2  13   11.01    2.87
 -29  -2  13   16.00    2.54
  29  -2 -13    2.82    2.47
 -29  -2  11    7.47    2.25
 -29   2  11   10.88    2.68
  29  -2 -11    5.85    2.96
  29   2 -11    7.21    2.85
 -29  -2  11   10.29    2.64
  29  -2  -9    8.36    1.07
 -29   2   9    6.79    2.29
  29   2  -7   63.47    2.48
 -29   2   7   60.32    1.06
 -29  -2   5   16.06    1.88
  29   2  -5   13.80    1.86
 -29   2   5   18.07    2.29
 -29  -2   3   28.74    2.55
  29   2  -3   67.93    3.17
 -29  -2   1   21.76    2.57
  29   2  -1    9.56    2.43
 -29  -2  -1    4.05    2.65
  29   2   1    2.61    2.66
  29   2   3   12.87    3.40
 -29  -2  -3    6.74    2.97
 -29  -2  -5    7.53    3.86
  29   2   5   26.07    5.03
 -29  -2  -7    3.38    5.05
  29   2   7    1.55    5.23
  29   3 -26    0.98    3.75
 -29  -3  26   -4.99    4.03
  29  -3 -26    7.39    4.67
 -29   3  26    1.51    4.06
 -29  -3  24    5.48    9.99
  29   3 -24   -3.40   11.16
  29  -3 -24   12.87    4.75
 -29   3  24    6.79    4.00
 -29  -3  24    4.81    3.85
  29  -3 -22    3.93    3.26
  29   3 -22   12.85   14.73
 -29  -3  22   10.97   10.95
 -29   3  22   -0.55    3.21
 -29  -3  22    0.44    3.18
  29   3 -22   19.81    5.00
  29  -3 -20    4.38    3.12
 -29   3  20    4.82    2.84
  29   3 -20    1.15    3.46
 -29  -3  20    1.20    2.77
  29   3 -20    0.37    7.22
 -29  -3  20   -0.50    9.07
  29  -3 -18   12.21    3.99
 -29   3  18    4.93    2.94
  29   3 -18   -0.31    5.62
 -29  -3  18    7.45    2.66
 -29  -3  18   -0.32    6.06
 -29  -3  16   16.38    2.65
  29  -3 -16   22.26    4.11
 -29   3  16   21.89    3.79
 -29  -3  16   11.62    5.48
  29   3 -16   34.68    5.68
  29  -3 -14    1.08    2.27
 -29   3  14    1.38    2.23
 -29  -3  14    3.57    1.80
 -29  -3  14    2.02    3.26
  29   3 -14    3.61    2.57
 -29   3  12   17.38    3.34
  29  -3 -12    9.84    2.88
  29   3 -12   15.35    2.30
 -29  -3  12    6.00    1.64
  29   3 -12    9.33    2.66
 -29  -3  12    5.72    2.61
 -29   3  10   25.55    4.10
  29  -3 -10   16.69    3.74
  29  -3  -8    3.47    0.30
 -29   3   8    9.99    3.20
  29  -3  -8   18.12    3.41
 -29  -3   8   16.37    2.21
  29   3  -8    5.65    1.56
  29   3  -6    3.02    1.56
 -29  -3   6   -0.07    1.48
 -29  -3   4    4.08    1.72
  29   3  -4    7.49    1.79
  29   3  -2    5.33    1.99
 -29  -3   2   21.46    2.52
 -29  -3   0   24.38    2.70
  29   3   0   31.88    2.89
  29   3   2    2.35    2.21
 -29  -3  -2    1.49    2.62
 -29  -3  -4   59.80    4.55
  29   3   4   47.77    4.04
 -29  -3  -6    2.72    3.12
  29   3   6   -1.31    3.33
  29   3   8    3.24    4.81
 -29  -3  -8    8.64    4.16
 -29  -4  23    3.82   11.33
  29   4 -23   11.35    9.46
  29  -4 -21   -3.60    1.99
 -29   4  21   -0.48    2.59
 -29  -4  21    8.35    3.26
  29   4 -21    5.18    3.49
 -29  -4  21    0.81    6.56
  29   4 -21   22.62    7.44
  29  -4 -19    7.79    3.71
 -29   4  19    3.45    3.27
 -29  -4  19    1.76    5.98
 -29  -4  19   10.62    3.68
  29   4 -19    8.08    3.37
  29   4 -19   18.34    5.79
 -29  -4  17    0.25    1.67
 -29  -4  17    0.91    5.33
  29   4 -17    0.82    4.26
 -29   4  17    2.29    2.82
  29   4 -17    1.26    1.89
  29  -4 -17   -2.20    2.65
 -29  -4  15    3.79    3.76
  29   4 -15    4.73    2.93
  29  -4 -15    0.78    2.41
 -29   4  15   -1.16    2.09
 -29  -4  15    3.57    1.68
  29   4 -15    2.49    1.63
 -29  -4  13    9.60    2.90
  29   4 -13    1.70    2.41
  29   4 -13    8.89    1.54
 -29   4  13    2.98    2.23
 -29  -4  13    2.27    1.32
  29  -4 -13    6.33    2.66
  29   4 -11    1.52    1.75
 -29  -4  11    4.79    2.17
 -29  -4  11    3.37    1.43
  29  -4 -11    8.50    3.16
 -29   4  11    3.55    2.28
  29  -4  -9   11.25    3.79
 -29  -4   9    7.62    2.11
  29   4  -9   11.52    2.09
 -29   4   7    3.98    2.29
  29  -4  -7    4.78    1.31
 -29   4   7    2.11    0.67
  29   4  -7    7.22    1.58
 -29   4   5   -3.23    2.51
 -29  -4   5    4.12    1.73
 -29  -4   3    3.65    1.74
  29   4  -3   10.75    1.93
  29   4  -1    1.53    1.80
 -29  -4   1    5.59    2.14
 -29  -4  -1   -0.81    2.06
  29   4   1    0.59    1.94
  29   4   3    8.85    2.72
 -29  -4  -3    3.25    2.61
 -29  -5  14    0.53    2.76
  29   5 -14    7.59    2.93
 -29   5  14   -0.52    3.22
 -29  -5  14   -0.89    0.98
  29  -5 -14    0.84    2.26
  29   5 -14    5.00    1.35
 -29   5  14    0.80    2.16
 -29  -5  12    6.58    2.58
  29   5 -12    1.39    2.00
 -29   5  12    8.06    2.82
 -29   5  12   -0.45    1.48
  29  -5 -12   -0.93    1.48
  29   5 -12    3.20    1.55
 -29  -5  12    2.11    0.86
  29  -5 -12    3.73    2.14
  29  -5 -10   35.68    4.62
 -29   5  10   24.45    3.93
  29  -5 -10   31.68    1.46
 -29   5  10   24.17    1.42
 -29  -5  10   15.64    2.39
  29   5 -10   23.96    2.42
  29  -5  -8    2.74    2.81
 -29   5   8    0.50    3.05
  29  -5  -8    2.87    0.87
 -29  -5   8    0.63    1.95
  29   5  -8    0.53    1.32
  29  -5  -6    3.26    1.67
 -29   5   6    0.04    1.03
  29   5  -6    2.39    1.49
 -29  -5   6    3.39    1.57
 -29   5   4   -2.83    2.59
  29  -5  -4   -1.20    3.64
 -29  -5   4   -2.97    1.45
 -30   0  28    1.39    3.87
  30   0 -28   13.80    5.65
  30   0 -26    4.95    5.00
 -30   0  26    5.93    4.63
  30   0 -24    9.53    4.91
 -30   0  24   -0.59    3.26
  30   0 -22   14.16    4.12
 -30   0  22    7.87    3.87
  30   0 -20   16.36    3.71
 -30   0  20   10.18    3.62
 -30   0  18    8.59    3.10
  30   0 -18    9.11    3.24
 -30   0  16    4.36    8.24
  30   0 -16    1.04    9.72
  30   0 -14    1.43    5.48
 -30   0  14   -1.34    6.20
  30   0 -14    8.64    2.58
 -30   0  14    2.93    2.04
 -30   0  12   -0.53    3.96
  30   0 -12    2.44    2.85
 -30   0  10   -0.12    1.72
  30   0 -10    2.08    1.65
 -30   0   8    5.51    1.41
  30   0  -8   12.20    1.32
 -30   0   6   10.47    1.36
  30   0  -6   18.60    1.61
 -30   0   4   11.77    1.78
  30   0  -4    7.60    1.96
 -30   0   2   34.86    2.93
  30   0  -2   19.90    2.86
 -30   0   0   37.12    3.92
  30   0   0   43.86    5.01
 -30   0  -2   28.47    5.38
 -30   1  29   14.92    5.63
  30   1 -29   18.70    5.63
  30  -1 -29   22.79    7.19
 -30  -1  29    2.01    4.55
  30   1 -27   -2.45    3.78
 -30  -1  27    3.15    3.83
 -30   1  27   -3.46    4.41
  30  -1 -27   14.37    5.79
  30   1 -25    9.26    5.25
  30  -1 -25    8.51    4.67
 -30  -1  25   -2.48    3.78
 -30   1  25    0.65    3.96
 -30   1  23    3.82    3.70
  30   1 -23    3.74    3.96
 -30  -1  23   -1.04    3.29
  30  -1 -21   13.18    3.82
  30   1 -21    3.35    3.38
 -30  -1  21    7.45    3.77
 -30   1  21   11.65    3.70
 -30  -1  19    2.80    9.48
  30   1 -19   -0.45   10.69
 -30   1  19    3.10    2.77
  30  -1 -19   11.07    3.71
  30   1 -19    4.46    2.83
  30   1 -17   -6.28    8.43
 -30  -1  17   -0.96   11.02
  30   1 -15    1.85    5.02
 -30  -1  15    2.86    5.45
  30  -1 -15   13.30    3.06
  30   1 -15   13.50    2.86
 -30   1  15    7.67    2.83
 -30  -1  15    2.35    2.21
 -30  -1  13    0.83    4.63
  30   1 -13    2.90    3.12
 -30   1  13   -0.41    6.64
  30  -1 -13   -4.85    8.53
 -30  -1  13    2.99    2.12
  30   1 -11   13.34    3.68
 -30  -1  11    9.27    2.65
  30  -1 -11    9.38    2.89
 -30  -1  11    6.63    2.37
  30   1 -11   13.53    2.41
 -30   1   9   18.77    3.48
 -30   1   9    7.89    1.44
  30   1  -7    0.34    1.31
  30  -1  -7    2.47    1.03
 -30  -1   7   -1.04    1.25
 -30  -1   5    3.37    1.57
  30  -1  -5   10.79    1.81
 -30   1   3   12.09    2.45
 -30  -1   3   11.37    1.99
  30   1  -3   12.78    2.13
  30  -1  -3   14.23    3.34
 -30  -1   1   13.63    2.75
  30   1  -1   12.54    2.69
 -30  -1  -1   31.71    3.47
  30   1   1   46.42    4.12
  30   1   3   58.83    6.18
 -30  -1  -3   43.82    4.84
 -30  -1  -5   20.96    5.76
 -30   2  28   -3.61    4.51
  30  -2 -28    2.21    4.59
 -30  -2  28   -0.58    4.21
  30   2 -28   -5.45    3.78
  30   2 -26    3.37    4.31
 -30   2  26    3.64    4.78
 -30  -2  26    0.58    4.12
  30  -2 -24   16.82    4.68
  30   2 -24    9.67    4.99
 -30   2  24    0.62    3.20
 -30  -2  24    1.55    3.35
  30   2 -22   -1.75   11.38
 -30   2  22   -0.52    2.77
 -30  -2  22   -0.46    2.76
 -30   2  20   17.30    3.52
  30   2 -20    1.85   13.11
 -30  -2  20    6.21   10.63
  30   2 -20    5.85    3.52
 -30  -2  20   15.39    3.33
  30   2 -18    1.85    6.37
 -30  -2  18    2.08    6.57
  30  -2 -18   14.85    4.19
 -30   2  18   12.66    3.63
 -30  -2  18    8.83    2.53
 -30  -2  16    1.98    5.25
  30   2 -16    0.25    5.28
 -30  -2  16    8.00    2.66
 -30  -2  14   10.81    4.28
  30   2 -14    5.16    3.01
  30  -2 -14    1.02    2.59
  30   2 -14   -0.87    1.79
 -30   2  14   -1.61    1.86
 -30  -2  14    6.69    2.12
  30  -2 -12    5.56    2.51
 -30  -2  12   13.05    2.04
 -30   2  12    6.72    2.63
  30   2 -12   10.76    2.62
 -30  -2  12    6.00    2.48
  30   2 -12   14.30    2.71
  30   2 -10   11.14    1.85
 -30  -2  10   12.38    2.13
  30  -2 -10    3.03    3.41
 -30   2  10   10.40    2.92
 -30   2  10    3.98    4.93
 -30   2   8    9.21    0.71
  30  -2  -8   11.30    0.68
 -30   2   8   14.72    3.08
 -30  -2   6    3.18    1.57
  30   2  -6    1.70    1.42
  30  -2  -6    4.30    1.96
  30   2  -4   26.44    2.38
 -30  -2   4   11.48    2.07
 -30  -2   2   13.36    2.22
  30   2  -2   17.11    2.25
  30   2   0    1.47    2.29
 -30  -2   0    8.17    2.64
  30   2   2    1.17    2.61
 -30  -2  -2    1.58    2.55
 -30  -2  -4   10.05    3.46
  30   2   4    8.76    3.45
 -30  -2  -6    6.20    4.58
  30   2   6   33.95    5.80
 -30  -2  -8   15.49    5.85
  30   3 -25    2.86   12.73
 -30   3  25    7.38    4.45
  30   3 -25   15.34    4.70
 -30  -3  25    5.56    4.32
 -30  -3  23   -5.45    8.92
  30   3 -23   -5.87   14.81
 -30   3  23    1.73    3.42
 -30  -3  23    1.87    3.10
 -30   3  21   -0.91    2.13
  30  -3 -21    4.86    3.15
 -30  -3  21   -2.36    9.14
  30   3 -21    0.43    7.71
 -30  -3  21    3.32    3.39
  30  -3 -19   19.53    4.34
 -30   3  19    6.91    3.23
  30   3 -19    8.96    3.01
 -30  -3  19    5.97    2.77
  30   3 -19    8.41    6.16
 -30  -3  19    2.41    6.28
 -30  -3  17    6.69    2.13
  30   3 -17   19.53    3.07
  30  -3 -17   15.63    3.86
 -30   3  17   15.21    3.61
 -30  -3  17    9.26    5.33
  30   3 -17   29.40    6.20
  30  -3 -15    5.51    2.85
 -30   3  15    2.42    2.16
  30   3 -15    3.71    1.83
 -30  -3  15    6.86    1.93
 -30  -3  15    3.41    3.92
  30   3 -15    5.11    3.47
 -30   3  13    6.85    2.68
  30  -3 -13    2.72    2.83
 -30  -3  13    5.18    2.49
  30   3 -13    9.74    2.54
  30   3 -13    7.64    1.63
  30   3 -11   21.98    2.27
 -30  -3  11   17.71    2.58
  30  -3 -11   11.77    3.28
 -30  -3  11   20.83    2.78
 -30   3  11   17.07    3.27
  30  -3  -9    9.63    3.52
 -30   3   9   23.76    4.66
 -30  -3   9   20.43    2.32
 -30  -3   7    3.18    1.60
  30   3  -7    6.80    1.41
  30   3  -5    5.53    1.61
 -30  -3   5    3.73    1.54
  30   3  -3   11.27    2.04
 -30  -3   3   12.16    2.14
 -30  -3   1    5.08    2.21
  30   3  -1    3.38    1.84
  30   3   1    1.23    2.48
 -30  -3  -1    1.85    2.41
 -30  -3  -3   10.16    3.01
  30   3   3   16.96    2.93
  30   3   5   -1.00    2.98
 -30  -3  -5    3.63    2.96
 -30   4  20    5.11    2.89
  30  -4 -20   19.41    4.57
  30   4 -20   11.02    5.79
 -30  -4  20    7.47    3.49
  30   4 -20   17.83    3.95
 -30  -4  20   -0.75    5.70
 -30  -4  18    5.71    2.32
  30   4 -18   13.78    2.72
 -30   4  18   14.33    4.10
  30  -4 -18    5.63    3.11
 -30  -4  18    5.54    5.09
  30   4 -18   15.43    5.44
  30   4 -16    6.31    2.13
 -30  -4  16    1.77    1.48
  30  -4 -16    0.39    2.14
 -30   4  16    5.42    2.70
 -30  -4  16    5.22    3.95
  30   4 -16   10.43    3.72
  30   4 -14    2.68    1.47
  30  -4 -14   -1.58    2.01
 -30   4  14    4.97    2.45
 -30  -4  14    2.08    1.46
 -30  -4  14    2.34    2.33
  30   4 -14    1.08    2.25
  30   4 -12    4.70    2.05
  30  -4 -12    8.08    2.52
 -30  -4  12    1.53    1.36
 -30   4  12    7.38    2.63
  30   4 -12    3.31    2.01
 -30  -4  12    5.36    2.47
  30   4 -10    9.00    1.98
 -30  -4  10    4.82    1.86
 -30   4  10    8.94    1.31
 -30   4  10    3.63    2.82
  30  -4 -10    2.64    3.02
  30  -4  -8    3.38    0.77
 -30  -4   8    5.46    1.96
  30   4  -8    9.47    1.71
 -30   4   8    3.22    0.53
 -30   4   8   10.91    3.82
  30  -4  -8    2.20    2.29
  30  -4  -6   12.15    4.69
 -30   4   6    1.57    1.95
  30   4  -6    3.90    1.59
 -30  -4   6    1.78    1.46
  30   4  -4    9.40    1.77
 -30  -4   4   10.41    1.93
  30   4  -2   23.97    2.44
 -30  -4   2   10.64    2.10
 -30  -4   0    5.91    2.24
  30   4   0    9.05    2.25
 -30  -4  -2   10.62    2.54
  30   4   2   21.57    3.00
  31   0 -27    7.59    5.42
 -31   0  27   10.44    5.17
  31   0 -25   11.83    4.82
 -31   0  25    1.20    3.71
  31   0 -23   -2.48    3.37
 -31   0  23   -1.62    3.24
  31   0 -21    5.39    3.08
 -31   0  21    3.08    2.82
 -31   0  19    0.36    2.47
  31   0 -19    9.14    3.57
  31   0 -17   -2.12    9.73
 -31   0  17    5.99    2.97
  31   0 -17    4.93    2.85
 -31   0  15   -9.01    9.48
  31   0 -15    3.24    5.48
  31   0 -15    6.36    2.62
 -31   0  15    2.42    2.03
  31   0 -13    2.15    3.78
 -31   0  13   -1.01    3.78
  31   0 -11    0.68    1.76
 -31   0  11    2.13    2.05
  31   0 -11    5.89    3.39
 -31   0  11    4.65    2.41
  31   0  -9    4.01    1.34
 -31   0   9    1.46    1.34
  31   0  -7    2.45    1.19
 -31   0   7   10.01    1.38
  31   0  -5   12.47    1.69
 -31   0   5    7.88    1.63
  31   0  -3    1.81    2.01
 -31   0   3    6.61    2.16
 -31   0   1    4.17    2.38
  31   0  -1    3.42    2.89
 -31   0  -1   16.52    4.32
  31  -1 -28   17.91    6.37
  31   1 -28   -1.27    4.55
 -31  -1  28    1.97    4.09
 -31   1  28   -3.48    4.17
 -31  -1  26    4.42    3.99
 -31   1  26   -2.72    3.46
  31  -1 -24    0.55    3.21
 -31   1  24   -4.18    2.46
 -31  -1  24   -1.08    3.16
 -31   1  22    5.94    3.43
  31   1 -22   20.70    4.32
 -31  -1  22    4.36    3.14
  31  -1 -22   14.90    3.99
 -31  -1  20    4.25    3.09
  31   1 -20    0.49   10.44
  31  -1 -20   -2.14    2.64
  31   1 -20    1.01    2.71
 -31   1  20    4.64    2.81
  31   1 -18   -0.46   10.48
 -31  -1  18   -0.46    9.51
  31  -1 -18    5.60    3.02
 -31   1  18    7.16    3.06
  31   1 -18    2.72    2.83
 -31  -1  18    0.33    2.21
  31   1 -16    0.93    5.20
 -31  -1  16   -3.31    5.35
 -31  -1  14    2.07    4.39
  31   1 -14   15.16    4.19
  31  -1 -14   13.78    8.17
  31  -1 -12   12.76    3.44
 -31   1  12    1.55    3.94
 -31  -1  12    8.34    2.42
  31   1 -10    4.82    1.51
 -31  -1  10    5.21    2.12
  31  -1 -10   11.03    3.34
 -31   1  10    0.57    1.54
  31  -1 -10    3.41    1.42
 -31  -1  10    7.11    1.77
 -31   1   8    4.99    0.93
  31   1  -8    2.57    1.23
  31  -1  -6    6.23    1.35
 -31   1   6    8.49    1.28
  31   1  -6    8.22    1.47
 -31  -1   6    7.19    1.46
 -31   1   4   19.75    2.09
  31   1  -4   15.38    1.99
  31  -1  -4   12.76    2.26
 -31  -1   4   18.49    2.10
  31   1  -2    9.56    2.37
 -31  -1   2   12.34    2.26
 -31   1   2   12.71    3.33
  31   1   0   15.04    2.75
 -31  -1   0    2.23    2.54
 -31  -1  -2   55.01    4.29
  31   1   2   32.55    4.87
 -31  -1  -4    5.79    4.52
  31   1   4    4.37    4.89
  31  -2 -27    1.48    4.51
  31   2 -27    0.59    3.46
 -31   2  27    6.62    4.41
 -31  -2  27    3.61    3.66
 -31  -2  25   -3.77    2.90
  31  -2 -25    7.87    4.57
 -31   2  25    1.98    3.73
  31   2 -25    2.70    4.58
  31   2 -23    5.62   11.84
 -31  -2  23    1.60    3.51
 -31   2  23    0.55    3.30
  31  -2 -23   12.06    3.99
 -31   2  21    1.72    2.68
  31  -2 -21    7.33    3.40
 -31  -2  21   -3.61    8.45
  31   2 -21   21.87   14.96
  31   2 -21    0.39    2.73
 -31  -2  21    0.43    2.77
 -31  -2  19    0.96    9.36
  31   2 -19    7.33    7.22
  31  -2 -19    5.53    3.48
 -31   2  19   -1.30    2.25
  31   2 -19    7.85    2.77
 -31  -2  19    1.94    2.17
 -31  -2  17   -1.90    5.52
  31   2 -17    3.77    4.97
  31   2 -17    2.33    2.22
 -31  -2  17    0.85    1.91
  31  -2 -17   -2.30    2.36
 -31   2  17    0.39    2.30
 -31  -2  15    3.79    4.47
  31   2 -15    8.42    4.07
  31  -2 -15    2.45    2.42
  31   2 -15    7.04    2.39
 -31   2  15    4.33    2.40
 -31  -2  15    7.86    2.14
  31  -2 -13    2.16    2.37
 -31  -2  13    2.48    2.60
 -31  -2  13    3.63    1.73
 -31   2  13    4.43    2.43
  31  -2 -11   10.17    3.59
 -31   2  11   -2.79    1.85
 -31  -2  11    9.61    2.55
  31  -2 -11    9.02    3.05
  31   2 -11    3.92    1.96
 -31  -2  11    3.21    2.13
  31   2 -11    1.04    1.73
 -31  -2   9   12.54    1.96
  31   2  -9    3.83    1.65
 -31   2   9   16.59    3.70
  31  -2  -9    8.54    2.91
  31  -2  -9    6.93    0.75
 -31   2   9    0.88    1.00
  31  -2  -7    6.01    1.21
  31   2  -7    4.61    1.44
 -31  -2   7    1.13    1.34
 -31   2   5   33.55    2.40
 -31  -2   5   11.72    1.77
 -31  -2   3   17.33    2.26
  31   2  -3   28.54    2.46
 -31  -2   1    8.11    2.24
  31   2  -1    5.35    2.27
 -31  -2  -1   -0.68    2.53
  31   2   1    1.89    2.64
 -31  -2  -3   22.69    3.38
  31   2   3   23.08    3.59
  31   2   5   63.04    5.64
 -31  -2  -5    1.60    3.51
 -31  -2  -7   -0.29    4.63
  31   2   7   -0.97    4.83
 -31  -3  24   -1.27    8.28
  31   3 -24    1.59   14.15
 -31   3  24   -6.63    2.41
 -31  -3  24    5.40    3.68
  31  -3 -24    0.58    3.31
 -31   3  22    0.94    2.57
 -31  -3  22  -17.88   10.80
  31   3 -22    5.63    9.82
 -31  -3  22   -5.44    2.62
  31   3 -22    3.52    4.06
  31  -3 -20    0.50    2.78
 -31   3  20   -4.34    2.26
  31   3 -20    9.99    3.05
 -31  -3  20   -0.38    2.32
  31   3 -20    6.88    6.44
 -31  -3  20    6.67    6.23
 -31  -3  18   -0.90    5.28
  31   3 -18   10.06    2.55
 -31   3  18    3.23    3.16
 -31  -3  18    5.60    2.04
  31  -3 -18   10.84    3.44
  31   3 -18    3.04    5.57
 -31  -3  16    4.73    1.96
  31  -3 -16    2.66    2.64
 -31   3  16    0.77    2.03
  31   3 -16    3.52    1.86
 -31  -3  16    4.36    4.88
  31   3 -16    1.00    3.63
  31  -3 -14   10.13    2.87
 -31   3  14    6.49    2.67
 -31  -3  14    0.38    1.35
  31   3 -14    3.14    1.67
  31   3 -14    2.66    2.42
 -31  -3  14    9.37    2.85
  31   3 -12   23.04    2.49
 -31  -3  12   11.60    2.54
 -31   3  12   23.20    3.45
 -31  -3  12   12.80    2.24
  31   3 -12   13.65    2.79
  31  -3 -12    5.33    2.88
  31  -3 -10   -0.99    2.89
 -31   3  10    6.95    2.53
 -31  -3  10    6.14    1.82
 -31   3   8   -2.39    1.71
 -31  -3   8    3.75    1.55
  31   3  -8    2.03    1.36
 -31  -3   6    5.37    1.56
  31   3  -6    4.98    1.52
 -31  -3   4   54.54    2.87
  31   3  -4   43.46    2.77
  31   3  -2   12.87    2.32
 -31  -3   2   22.77    2.58
 -31  -3   0   10.95    2.45
  31   3   0    5.49    2.28
 -31  -3  -2   -3.47    2.44
  31   3   2    3.77    2.30
  31   3   4    6.78    2.88
 -31  -3  -4    5.63    3.00
  31   4 -19   22.97    3.43
 -31  -4  19    4.51    2.23
  31  -4 -19   21.59    4.55
 -31   4  19   17.92    4.16
 -31  -4  19   16.52    5.24
  31  -4 -17    0.85    2.46
 -31   4  17    0.87    2.66
 -31  -4  17    5.05    4.52
  31   4 -17    3.09    3.55
  31  -4 -15    0.41    2.20
  31   4 -15    4.02    1.62
 -31   4  15    4.29    2.44
 -31  -4  15    2.02    1.42
 -31  -4  15    7.81    3.07
 -31   4  13    5.96    2.44
 -31  -4  13    9.02    1.67
  31  -4 -13    4.39    2.43
 -31  -4  13    9.16    2.70
  31   4 -11   11.45    2.03
  31  -4 -11   14.58    3.59
 -31   4  11   10.69    3.07
 -31  -4  11    6.04    1.41
  31  -4 -11    5.62    1.20
  31  -4  -9    6.22    3.23
 -31   4   9    1.92    2.96
  31   4  -7    7.90    1.62
 -31   4   7    3.15    0.80
 -31  -4   5    4.73    1.70
  31   4  -5    3.76    1.45
 -31  -4   3    0.44    1.68
  31   4  -3    1.21    1.56
 -31  -4   1   11.49    2.30
  31   4  -1    1.83    1.90
  32   0 -26   44.09    6.83
 -32   0  26   -0.62    3.09
  32   0 -24   33.32    5.41
 -32   0  24   15.05    4.41
 -32   0  22    0.94    3.07
  32   0 -22    3.50    2.96
 -32   0  20   21.29    3.54
  32   0 -20   46.43    5.17
  32   0 -18  -11.88    9.45
 -32   0  18    9.32    3.08
  32   0 -16    3.24    8.57
 -32   0  16    2.83    8.02
 -32   0  14    0.17    4.22
  32   0 -14    1.69    3.94
 -32   0  12    0.20    2.66
  32   0 -12    4.13    1.95
 -32   0  12   10.13    2.78
  32   0 -10    6.22    1.36
 -32   0  10    1.87    1.44
  32   0  -8   63.91    2.09
 -32   0   8   72.32    2.06
  32   0  -6  207.05    3.85
 -32   0   6  197.64    3.57
 -32   0   4   13.09    1.83
  32   0  -4    3.59    2.01
  32   0  -2   17.21    2.59
 -32   0   2    2.46    2.18
  32   0   0    8.37    4.19
 -32   0   0    6.45    3.23
 -32   0  -2   44.97    5.26
  32   1 -27    0.74    4.14
  32  -1 -27    6.39    4.97
 -32  -1  27    0.64    3.55
 -32   1  27   -2.73    3.21
  32  -1 -25    1.15    3.35
 -32   1  25   -3.80    2.68
 -32  -1  25    1.79    3.43
 -32   1  23   -2.08    3.04
  32   1 -23    4.19    3.70
 -32  -1  23   -0.52    3.04
  32  -1 -23    2.51    3.48
  32   1 -21    0.54   11.07
 -32   1  21    2.02    2.58
  32  -1 -21    3.49    3.18
  32   1 -21   10.01    3.48
 -32  -1  19   -0.85    8.02
  32   1 -19    6.86   13.25
  32  -1 -19    2.15    3.01
 -32  -1  19    8.68    2.58
 -32   1  19    3.64    2.80
  32   1 -19    1.75    2.47
  32   1 -17    5.15    5.91
 -32  -1  17    1.25    6.78
 -32  -1  17   13.07    2.87
  32  -1 -17   18.72    3.53
  32   1 -17   18.15    3.15
 -32   1  17    9.93    2.88
  32  -1 -15    7.94    7.53
  32   1 -15   -0.20    4.29
 -32  -1  15   -1.97    4.38
  32  -1 -15    5.25    2.60
  32   1 -15   -0.80    2.03
 -32   1  15    3.43    2.02
 -32  -1  15    3.33    2.02
 -32  -1  13    2.44    2.97
  32   1 -13    3.64    2.41
 -32  -1  13    6.37    2.16
  32   1 -13    0.55    2.18
 -32   1  13   -3.09    6.23
  32  -1 -13   -0.51    3.76
  32   1 -11    1.13    1.54
 -32   1  11   -0.57    2.47
 -32  -1  11    2.55    1.99
  32  -1 -11    1.97    1.49
  32   1 -11    3.71    2.25
  32  -1 -11    2.58    3.44
 -32   1  11    3.68    2.48
 -32   1   9    3.74    0.98
 -32   1   9    2.59    1.88
  32   1  -9    4.93    1.35
 -32  -1   7   12.37    1.61
 -32   1   7   13.24    1.12
  32   1  -7    7.56    1.41
 -32   1   5   41.16    2.07
 -32  -1   5   33.16    2.15
 -32   1   3    4.92    2.25
 -32  -1   3    9.33    1.90
  32   1  -3    3.77    2.05
  32  -1  -3    9.26    3.21
 -32  -1   1   45.77    3.33
  32   1  -1   22.94    3.08
  32   1   1    2.64    3.01
 -32  -1  -1    7.32    2.73
  32   1   3   18.39    4.87
 -32  -1  -3    7.89    3.88
 -32  -1  -5    0.55    4.76
  32   2 -24  -10.85   12.13
 -32  -2  24    2.99    3.83
 -32   2  24    1.72    3.19
 -32   2  22   -2.67    2.59
 -32  -2  22    3.26    8.61
  32   2 -22   -3.86   11.96
  32   2 -22    1.23    3.07
 -32  -2  22    3.25    3.18
 -32  -2  20   -2.34    9.84
  32   2 -20    0.40    7.68
  32   2 -18    2.30    5.47
 -32  -2  18   -2.07    5.30
  32   2 -18   10.70    3.03
  32  -2 -18    9.30    3.00
 -32  -2  18    5.44    2.20
 -32  -2  16   -0.24    4.66
  32   2 -16    8.36    4.41
  32   2 -16    4.41    1.94
 -32   2  16   -1.03    2.07
 -32  -2  16   -0.25    1.69
  32   2 -14    1.06    1.68
 -32  -2  14    3.24    2.87
  32   2 -14    6.05    2.54
 -32   2  14   12.47    3.05
  32   2 -12    7.35    2.14
 -32  -2  12    5.90    2.40
  32  -2 -12    8.77    5.53
 -32  -2  12    9.35    2.25
 -32   2  12    2.50    2.27
  32  -2 -12   12.94    3.14
  32   2 -12    8.99    2.75
 -32  -2  10    9.02    1.77
  32   2 -10   17.32    1.98
  32  -2 -10    7.59    1.14
 -32   2  10    4.96    1.99
 -32   2  10   19.44    4.28
 -32   2   8    4.48    0.61
 -32  -2   8    5.46    1.44
  32   2  -8    1.60    1.24
  32   2  -6   10.43    1.56
 -32  -2   6    5.60    1.53
  32  -2  -6    9.03    2.08
  32   2  -4   24.76    2.24
 -32  -2   4   10.83    1.99
 -32  -2   2    3.23    1.97
  32   2  -2    1.99    1.86
  32   2   0    2.50    2.24
 -32  -2   0   12.31    2.76
  32   2   2    7.00    2.83
 -32  -2  -2    6.11    2.89
 -32  -2  -4   13.77    3.33
  32   2   4   27.71    4.26
 -32   3  23    7.77    3.44
  32  -3 -23   10.51    3.54
  32   3 -23   10.52   10.79
 -32  -3  23    7.73   11.65
 -32  -3  23    1.66    3.17
 -32   3  21   -2.46    2.03
  32  -3 -21   -1.53    2.54
  32   3 -21   -1.42    2.27
 -32  -3  21    5.34    3.18
  32   3 -21   -0.77    6.39
 -32  -3  21    0.43    7.10
 -32   3  19    8.32    3.56
  32   3 -19    4.55    2.14
  32  -3 -19   13.97    4.09
  32   3 -19    5.47    5.03
 -32  -3  19    3.93    2.24
 -32  -3  19    5.88    5.80
  32  -3 -17   25.19    4.10
 -32  -3  17   11.28    2.43
 -32   3  17   21.59    3.84
  32   3 -17   15.59    2.72
 -32  -3  17   24.52    5.38
  32   3 -17   24.92    4.76
  32  -3 -15    5.07    2.73
  32   3 -15    1.44    1.60
 -32   3  15    4.07    2.37
 -32  -3  15    1.37    1.24
  32   3 -15    0.45    2.60
 -32  -3  15    0.71    3.16
 -32   3  13   16.43    3.35
 -32  -3  13   12.13    2.68
 -32  -3  13    8.18    1.61
  32  -3 -13   14.43    2.95
  32   3 -13   16.20    2.48
 -32  -3  11    1.46    1.84
 -32   3  11    2.35    2.38
  32  -3 -11    3.00    2.87
 -32  -3  11    2.58    1.46
  32   3 -11    2.37    1.63
  32  -3  -9    1.42    2.01
 -32  -3   9    2.17    1.72
  32   3  -9    4.15    1.36
  32  -3  -9    0.36    0.07
  32   3  -7    5.52    1.51
 -32  -3   7    2.51    1.47
 -32  -3   5   17.85    1.97
  32   3  -5    6.47    1.57
  32   3  -3   24.33    2.56
 -32  -3   3  103.02    3.87
 -32  -3   1    5.02    2.10
  32   3  -1    8.96    2.12
  32   3   1   11.28    2.95
 -32  -3  -1    8.64    2.61
 -32  -4  16    1.31    1.33
  32  -4 -16    1.67    2.29
 -32   4  16    1.17    2.27
  32   4 -16    3.38    1.57
  32   4 -16    2.45    2.47
 -32  -4  16    1.04    3.15
 -32  -4  14    1.68    1.25
 -32   4  14    4.80    2.43
  32  -4 -14    9.30    2.87
  32   4 -14    2.98    1.27
 -32  -4  14    0.47    2.39
  32   4 -14    1.60    2.27
 -32   4  12    5.31    2.25
 -32  -4  12   -1.20    1.92
 -32  -4  10   13.66    2.07
  32  -4 -10   19.68    4.64
 -32   4  10   17.90    3.72
 -32   4  10    5.27    0.97
 -32   4   8    1.20    2.19
 -32   4   8    0.13    0.41
  32  -4  -8    2.53    1.35
 -32  -4   8    0.86    1.43
  32   4  -8    2.56    1.38
 -32   4   6   -1.31    4.01
 -32  -4   6    3.35    1.52
  32   4  -4   10.91    1.88
 -32  -4   4    1.15    1.61
  33   0 -25   -1.63    3.64
 -33   0  25   -0.61    3.28
 -33   0  23    1.48    2.78
  33   0 -23    1.42    3.17
  33   0 -21    3.66    2.85
 -33   0  21    1.89    2.42
  33   0 -19    3.17    3.02
 -33   0  19   17.82    3.43
 -33   0  17   -1.67    7.22
  33   0 -17   11.34   10.97
  33   0 -17    1.55    2.30
 -33   0  17    5.88    2.36
  33   0 -15    3.09    4.14
 -33   0  15   -6.20    4.57
 -33   0  15   -2.35    1.47
 -33   0  13    1.28    3.55
  33   0 -13    4.13    2.41
  33   0 -13   -1.28    1.67
 -33   0  13    0.24    1.65
 -33   0  11    0.07    1.62
  33   0 -11    3.53    1.46
 -33   0  11    1.89    2.65
 -33   0   9    1.68    1.16
  33   0  -9    4.94    1.11
 -33   0   7    3.14    1.13
  33   0  -7    2.35    1.18
 -33   0   5    4.02    1.46
  33   0  -5    1.11    1.60
 -33   0   3    1.34    2.01
  33   0  -3    8.72    2.23
  33   0  -1   13.24    3.16
 -33   0   1    3.80    2.40
 -33   0  -1    5.37    3.98
  33   0   1    0.83    4.14
 -33  -1  26    7.38    4.50
 -33   1  26   10.02    4.63
 -33   1  24   -2.71    2.24
  33   1 -24    1.95    3.65
 -33  -1  24   -1.66    2.71
  33  -1 -24    1.07    3.29
 -33   1  22    4.25    2.65
  33   1 -22   15.89    3.62
  33  -1 -22   17.69    3.86
 -33  -1  22    5.72    3.26
 -33  -1  20    0.91    7.27
  33   1 -20    1.59   11.70
  33  -1 -20    1.33    2.80
 -33  -1  20    7.39    2.56
 -33   1  20   -1.28    2.13
  33   1 -20    1.48    2.51
 -33  -1  18   10.89    9.02
  33   1 -18    0.26    5.82
 -33  -1  18    3.49    2.40
  33  -1 -18   11.22    3.20
  33   1 -18    1.30    2.17
 -33   1  18    3.09    2.59
 -33  -1  16    0.68    4.70
  33   1 -16   -0.83    4.28
  33  -1 -16    3.37    2.52
 -33   1  16    3.49    2.29
 -33  -1  14    2.19    3.67
  33   1 -14    6.61    2.94
  33  -1 -14    2.54    4.74
 -33   1  14    0.25    6.73
  33   1 -12   12.67    2.22
 -33  -1  12   13.40    2.31
  33  -1 -12    9.36    2.29
 -33   1  12    4.86    3.05
 -33  -1  10    3.52    1.40
  33  -1 -10   10.92    1.17
 -33   1  10    3.45    1.39
 -33   1  10   13.44    3.20
  33   1 -10    5.74    1.52
  33   1  -8    0.18    1.22
 -33  -1   8   -0.23    1.19
  33  -1  -8    2.35    0.89
 -33   1   8    2.37    0.82
  33   1  -6    3.16    1.43
 -33  -1   6    5.96    1.33
 -33   1   6    3.52    1.16
  33  -1  -6    4.54    1.47
 -33  -1   4    9.34    1.88
  33  -1  -4    8.64    2.26
 -33   1   4   11.79    1.85
  33   1  -2    3.55    2.21
 -33  -1   2    3.94    2.12
 -33   1   2    3.97    3.02
 -33  -1   0   26.53    3.08
  33   1   0   37.23    3.55
 -33  -1  -2   54.65    4.30
  33   1   2   20.52    4.18
 -33  -1  -4   -0.48    4.05
  33   1   4    4.31    5.04
 -33   2  23    5.40    3.18
  33  -2 -23    5.21    3.11
 -33  -2  23   -0.59    8.39
  33   2 -23    4.32   11.51
  33   2 -23    0.87    2.74
 -33  -2  23    4.48    3.11
  33   2 -21    8.90    2.97
 -33   2  21    0.46    2.71
  33  -2 -21    7.24    3.51
  33   2 -21    9.24   10.63
 -33  -2  21   -5.34   10.26
 -33  -2  21   -1.16    1.98
 -33  -2  19   -3.67    5.55
  33   2 -19   -8.42    5.40
 -33   2  19   -1.36    1.98
 -33  -2  19   -1.84    1.66
  33   2 -19   -1.28    2.13
  33  -2 -19    1.29    2.44
  33   2 -17    2.79    4.76
 -33  -2  17    4.23    4.34
  33  -2 -17    2.18    2.54
  33   2 -17   -0.54    1.66
 -33   2  17    1.14    2.16
 -33  -2  17    5.37    2.10
 -33  -2  15    0.96    3.64
  33   2 -15    7.57    3.04
  33  -2 -15    6.65    2.74
 -33   2  15    4.20    2.37
 -33  -2  15    5.86    1.95
  33   2 -15    1.18    1.84
 -33   2  13    7.15    2.45
  33  -2 -13    5.18    2.46
 -33  -2  13    9.46    2.00
 -33  -2  13    6.12    2.31
  33   2 -13    9.70    2.46
  33   2 -11    5.66    1.62
  33  -2 -11    7.92    1.99
 -33  -2  11    0.46    1.83
 -33   2  11   -3.22    2.81
 -33  -2  11    2.71    1.76
  33  -2 -11    0.96    3.23
 -33   2  11    7.11    2.83
 -33   2   9    2.48    0.73
 -33   2   9    3.64    2.14
 -33  -2   9    2.73    1.65
  33   2  -9    4.20    1.31
  33   2  -7    9.85    1.58
 -33  -2   7    8.97    1.62
 -33   2   5    3.10    2.03
  33   2  -5    0.26    1.47
 -33  -2   5    4.00    1.50
  33   2  -3   14.36    2.23
 -33  -2   3   27.85    2.54
  33   2  -1   12.17    2.50
 -33  -2   1   33.21    2.82
  33   2   1    4.54    2.54
 -33  -2  -1    7.96    2.77
 -33  -2  -3   51.15    4.12
  33   2   3   43.28    4.50
  33  -3 -20    0.50    2.61
  33   3 -20    8.14    2.46
 -33   3  20    0.49    2.60
 -33  -3  20    4.35    2.57
 -33  -3  20    9.84    5.62
  33   3 -20   -2.72    5.37
 -33  -3  18    2.88    4.72
  33   3 -18    5.28    5.17
  33   3 -18    0.56    2.01
  33  -3 -18    5.10    2.85
 -33   3  18    4.72    2.75
 -33  -3  18   -0.28    1.74
  33  -3 -16   -0.40    2.07
 -33   3  16    3.79    2.48
 -33  -3  16    4.27    3.58
  33   3 -16    8.59    3.01
 -33   3  14    6.53    2.72
 -33  -3  14    6.48    1.71
 -33  -3  14    3.34    2.35
  33   3 -14    0.97    2.24
  33   3 -14    5.85    1.94
  33  -3 -14    3.21    2.31
 -33  -3  12   26.48    2.83
  33  -3 -12   13.78    3.49
 -33  -3  12   24.93    3.16
 -33   3  12   23.89    3.71
 -33  -3  10    8.84    1.92
  33   3 -10   11.81    1.92
  33  -3 -10    2.45    1.42
  33  -3 -10   12.08    3.63
 -33   3  10   20.02    3.95
 -33   3   8    1.04    0.27
 -33  -3   8    1.48    1.32
  33   3  -8    0.34    1.19
 -33  -3   6   16.41    1.89
  33   3  -6   12.42    1.80
  33   3  -4   11.56    2.04
 -33  -3   4   15.82    2.01
 -33  -3   2    6.95    2.23
  33   3  -2   14.02    2.18
 -33  -3   0    6.51    2.27
  33   3   0   14.41    2.59
 -33   4  11   12.22    3.38
  33  -4 -11    8.27    3.57
  33  -4 -11    0.92    0.87
  33  -4  -9    3.93    2.42
 -34   0  24    0.51    2.40
  34   0 -24    9.07    3.60
 -34   0  22   24.37    4.02
  34   0 -22   37.24    4.84
  34   0 -20   -2.10    2.59
 -34   0  20    2.39    2.64
 -34   0  18    0.37    6.79
  34   0 -18    9.59   10.06
  34   0 -18   12.82    3.02
 -34   0  18   13.39    3.32
  34   0 -16   -0.21    4.86
 -34   0  16  -12.83    6.29
  34   0 -14   -0.71    3.10
 -34   0  14   -0.61    3.54
  34   0 -12    2.30    1.72
 -34   0  12    1.16    1.66
  34   0 -12    9.93    3.34
 -34   0  12    9.21    2.75
  34   0 -10    7.97    1.35
 -34   0  10    0.86    1.09
  34   0  -8    2.74    1.04
 -34   0   8    4.09    1.03
  34   0  -6  269.25    4.38
 -34   0   6  262.00    4.20
  34   0  -4   10.55    2.14
 -34   0   4   10.78    1.80
 -34   0   2   10.98    2.36
  34   0  -2    7.47    2.43
  34   0   0   13.49    4.29
 -34   0   0    8.01    3.16
 -34   0  -2    9.07    4.46
  34  -1 -25   11.20    4.04
 -34   1  25    2.26    3.38
  34   1 -25   11.08    4.15
 -34  -1  25    9.35    3.88
 -34   1  23   10.69    3.35
  34  -1 -23    8.04    3.43
 -34  -1  23   -1.84    2.06
  34   1 -23    7.95    3.36
 -34  -1  21   -1.01    7.62
  34   1 -21    3.51   10.60
 -34   1  21    0.44    2.17
 -34  -1  21    4.24    2.26
  34  -1 -21    5.42    3.29
  34   1 -19    0.38    7.72
 -34  -1  19   -0.54    9.72
  34   1 -19    7.54    2.71
 -34   1  19    7.20    2.68
 -34  -1  19    6.37    2.53
 -34  -1  17  -12.47    4.41
  34   1 -17    9.68    5.06
  34  -1 -17   11.80    3.16
  34   1 -17    7.14    2.41
 -34   1  17   14.45    3.04
 -34  -1  17   13.78    2.71
 -34  -1  15    5.09    4.00
  34   1 -15    2.48    3.39
  34  -1 -15   19.56    7.82
 -34   1  15   -5.40    5.73
  34  -1 -13    1.12    2.92
  34   1 -13    8.01    2.05
 -34  -1  13    2.23    2.02
 -34   1  13    0.13    3.15
 -34   1  13    5.53    2.18
  34  -1 -13   13.27    3.32
 -34  -1  13    7.96    2.38
  34   1 -13    2.42    2.08
 -34  -1  11    3.90    1.73
 -34   1  11    0.22    1.39
  34  -1 -11    3.54    1.29
  34  -1 -11    1.80    2.42
 -34  -1  11    2.39    2.17
 -34   1  11   12.82    3.65
  34   1 -11    4.53    1.46
 -34   1   9    4.26    1.04
 -34  -1   9    4.66    1.42
  34   1  -9    7.54    1.32
  34  -1  -9    4.67    0.87
 -34   1   7    4.93    1.04
  34   1  -7    2.16    1.11
  34   1  -5   21.33    2.04
 -34  -1   5   18.32    2.01
 -34   1   5   18.15    1.80
  34  -1  -5   14.44    1.99
 -34   1   3    6.72    2.30
 -34  -1   3    1.49    1.71
  34   1  -1   13.70    2.71
 -34  -1   1    6.90    2.55
 -34  -1  -1    1.10    2.56
  34   1   1   -0.83    2.93
  34   1   3   30.06    5.20
 -34  -1  -3   19.13    4.14
 -34  -2  22    3.28    2.43
  34   2 -22    1.95   12.38
 -34  -2  22    5.85    9.31
 -34   2  22    1.86    2.55
  34   2 -20    4.70    6.18
 -34  -2  20    2.01    6.81
 -34   2  20   13.25    3.45
  34   2 -18   -9.62    4.40
 -34  -2  18   -0.63    1.65
  34  -2 -18    0.77    2.10
 -34   2  18   -0.80    1.88
  34   2 -18    2.31    2.02
 -34  -2  16    3.98    4.18
  34   2 -16    8.84    3.32
  34  -2 -16   20.00    3.64
  34   2 -16   17.92    2.72
 -34   2  16   18.26    3.30
 -34  -2  16   13.25    2.32
  34  -2 -14   11.55    2.72
  34   2 -14    3.43    1.98
 -34  -2  14    9.69    2.08
  34   2 -14    6.00    2.43
 -34  -2  14    1.75    2.44
 -34   2  14    9.65    2.64
 -34  -2  12   18.08    2.39
  34  -2 -12   17.19    2.78
 -34   2  12   -2.66    4.76
 -34   2  12   13.29    3.29
 -34  -2  12   15.59    2.92
  34  -2 -12   21.21    4.03
  34   2 -12   20.82    2.78
 -34   2  10    1.52    1.04
  34  -2 -10    3.71    0.74
 -34   2  10   -0.42    2.40
  34  -2 -10   -0.34    1.71
 -34  -2  10    3.56    1.55
  34   2 -10    6.20    1.59
  34   2  -8    5.12    1.29
 -34   2   8    2.93    0.65
 -34  -2   8    2.25    1.34
 -34   2   6   23.31    1.59
  34  -2  -6   30.43    2.53
 -34  -2   6   24.11    1.98
  34   2  -6   25.92    2.09
  34   2  -4    3.33    1.67
 -34  -2   4   15.49    2.10
 -34  -2   2    8.35    1.91
  34   2  -2    2.62    1.90
  34   2   0    4.35    2.47
 -34  -2   0   11.65    2.70
 -34  -3  19    1.69    1.71
  34   3 -19    0.90    2.00
  34  -3 -19    7.19    3.15
 -34   3  19   -0.92    2.39
  34   3 -19   11.55    5.25
 -34  -3  19    1.50    5.10
  34  -3 -17    4.87    2.66
  34   3 -17   -0.90    1.29
 -34   3  17    3.47    2.53
 -34  -3  17    1.51    1.61
 -34  -3  17    2.59    4.16
  34   3 -17    5.76    3.20
 -34   3  15   12.37    2.92
 -34  -3  15    2.99    1.56
  34  -3 -15    3.03    2.54
  34   3 -15    8.15    2.37
 -34  -3  15    5.44    2.72
  34   3 -15    6.07    1.75
 -34  -3  13   -0.14    2.00
 -34  -3  13    1.15    1.46
  34   3 -13   -1.46    1.52
  34  -3 -13   -0.42    2.08
 -34   3  13    2.91    1.86
 -34  -3  11    1.34    1.73
  34  -3 -11    3.72    3.15
 -34   3  11    0.41    2.23
  34   3 -11    3.86    1.66
 -34   3   9    0.13    0.24
 -34  -3   9    7.10    1.72
  34   3  -9    7.52    1.58
 -34   3   9    6.77    2.71
  34  -3  -9    0.97    0.32
  34   3  -7    2.17    1.36
 -34  -3   7    2.63    1.43
  34   3  -5    5.40    1.83
 -34  -3   5   13.33    1.97
  34   3  -3    2.51    1.72
 -34  -3   3    5.27    2.08
 -35   0  23    2.27    2.31
  35   0 -23    8.80    3.25
 -35   0  21    1.24    2.52
  35   0 -21    2.57    2.87
  35   0 -19    1.56    8.86
 -35   0  19   -0.78    1.90
  35   0 -19    2.19    2.40
  35   0 -17   -2.38    5.02
 -35   0  17   -1.24    8.06
  35   0 -17   -0.32    1.78
 -35   0  17    0.31    1.60
  35   0 -15   -0.17    3.57
 -35   0  15    0.18    3.80
  35   0 -15    0.58    1.86
 -35   0  15   -1.77    1.42
  35   0 -13    1.21    1.70
 -35   0  13   -0.10    2.21
 -35   0  13    1.94    1.97
  35   0 -13    0.35    2.35
 -35   0  11    2.72    1.45
 -35   0  11   -0.34    1.96
  35   0 -11    2.76    1.21
 -35   0   9    0.66    1.07
  35   0  -9    5.65    1.14
 -35   0   7    0.85    1.08
  35   0  -7    0.24    1.17
 -35   0   5    4.24    1.47
  35   0  -5    0.15    1.43
  35   0  -3    2.40    2.00
 -35   0   3    1.87    1.80
 -35   0   1    0.23    2.29
  35   0  -1   13.95    3.40
 -35   0  -1    4.06    3.72
  35   0   1   -3.71    4.05
  35   1 -22    3.65   10.20
 -35  -1  22    6.06    2.62
 -35   1  22    0.89    2.47
  35  -1 -22    4.22    3.21
  35   1 -20    0.48   10.00
 -35  -1  20   -4.03    8.24
  35   1 -18   -0.78    5.40
 -35  -1  18   -2.30    4.78
  35  -1 -18    2.44    2.41
  35   1 -18    6.78    2.65
 -35  -1  18    1.92    2.05
  35  -1 -16   -4.39    9.19
  35   1 -16    1.24    4.01
 -35  -1  16   -0.20    3.40
  35   1 -16    3.70    2.01
  35  -1 -16   -0.69    1.85
 -35   1  16    0.68    2.04
 -35  -1  16    1.68    1.66
  35   1 -14    0.63    2.02
 -35  -1  14    0.13    2.40
 -35   1  14    0.30    1.66
 -35  -1  14    4.13    1.74
  35  -1 -14    7.54    2.71
 -35   1  14   -0.79    3.82
  35  -1 -14    1.80    3.09
  35  -1 -12    6.99    1.52
  35   1 -12    9.41    1.74
 -35   1  12    0.35    2.32
 -35  -1  12    3.30    1.91
  35   1 -12    5.57    2.19
  35  -1 -12    5.12    3.57
 -35   1  10    3.05    0.99
 -35   1  10    6.62    2.36
 -35  -1  10    8.35    1.56
  35   1 -10    5.03    1.22
 -35   1   8    2.20    0.82
  35   1  -8    2.44    1.12
  35  -1  -8    4.12    1.01
 -35  -1   8    1.36    1.12
  35   1  -6    5.81    1.56
 -35  -1   6    1.28    1.32
 -35   1   6    2.55    1.22
  35  -1  -6    2.41    1.57
 -35  -1   4    7.30    1.73
  35   1  -4    5.50    1.71
  35  -1  -4    2.30    2.25
 -35   1   4    0.93    1.60
  35   1  -2    9.06    2.29
 -35  -1   2    9.06    2.39
 -35   1   2   17.05    3.18
 -35  -1   0   13.69    2.80
  35   1   0   32.42    3.46
 -35  -2  21    8.40    8.58
  35   2 -21   -2.76    6.03
  35   2 -21    8.60    2.89
  35  -2 -21   -1.00    3.16
 -35  -2  21    8.55    2.48
 -35   2  21    2.85    2.89
 -35  -2  19   -0.91    5.18
  35   2 -19    5.71    5.53
 -35  -2  19   11.83    2.67
  35   2 -19   12.37    2.98
 -35  -2  17   -0.25    4.26
  35   2 -17    0.45    3.95
  35  -2 -17   -1.17    2.05
  35   2 -17    2.65    1.96
 -35   2  17    0.73    2.01
 -35  -2  17    0.82    1.72
  35   2 -15    7.16    2.42
 -35  -2  15    5.04    3.06
  35   2 -13    5.90    1.97
 -35  -2  13    0.81    2.14
  35  -2 -13   15.37    3.91
  35  -2 -13   10.55    3.12
  35   2 -13    6.11    2.72
 -35   2  13    6.07    2.45
 -35  -2  13    8.81    2.28
  35  -2 -11    1.00    0.94
 -35  -2  11    2.57    1.54
 -35   2  11    2.69    2.02
  35  -2 -11    7.24    3.09
 -35   2  11    3.61    2.82
  35   2 -11    2.35    1.44
 -35   2   9   11.95    0.76
 -35  -2   9   12.61    1.63
  35   2  -9   13.67    1.57
 -35   2   7    3.13    0.93
  35  -2  -7    6.35    1.28
 -35  -2   7    3.75    1.40
  35   2  -7    3.12    1.31
 -35   2   5    4.28    2.16
  35   2  -5    0.99    1.41
 -35  -2   3    3.60    1.81
  35   2  -3   23.72    2.27
  35   2  -1   -0.59    2.26
 -35  -2   1    0.24    1.96
  35   3 -14    5.60    2.38
 -35  -3  14    3.16    2.24
  35  -3 -14    8.75    2.79
 -35  -3  14   -0.19    1.00
  35   3 -14    6.71    2.20
 -35  -3  12   10.07    2.08
 -35   3  12    8.91    2.85
  35  -3 -12    0.95    2.51
  35   3 -12    4.47    1.69
 -35   3  10   11.82    3.41
  35  -3 -10   19.09    3.54
  35  -3 -10    1.82    0.26
 -35  -3  10    9.51    1.80
  35   3 -10   15.35    1.72
 -35   3   8    6.07    0.55
  35   3  -8   10.01    1.59
 -35  -3   8    9.39    1.63
 -36   0  22    6.67    2.73
  36   0 -22    6.60    3.17
  36   0 -20    2.95    9.13
 -36   0  20    1.68    2.34
  36   0 -20    3.11    2.24
  36   0 -18    0.35    7.63
 -36   0  18   -3.20    7.57
 -36   0  16    1.43    4.33
  36   0 -16   -0.53    3.70
 -36   0  16    2.54    1.93
  36   0 -16    8.12    2.40
 -36   0  14   -0.76    3.09
  36   0 -14    2.02    2.23
 -36   0  14    6.49    2.19
 -36   0  12    1.34    1.66
  36   0 -12    8.11    1.61
  36   0 -12    7.34    2.71
 -36   0  10   30.03    1.81
  36   0 -10   35.95    1.63
 -36   0   8    2.51    1.09
  36   0  -8    6.13    1.24
  36   0  -6   12.16    1.69
 -36   0   6   15.09    1.64
  36   0  -4    3.82    1.87
 -36   0   4    4.28    1.74
  36   0  -2   17.45    2.82
 -36   0   2    7.13    2.21
 -36  -1  21   -4.64    7.43
  36   1 -21   -0.61   11.25
  36  -1 -21    5.15    2.85
  36   1 -21    5.63    2.76
 -36   1  21    2.25    2.38
  36   1 -19    0.29    5.75
 -36  -1  19    2.31    7.10
  36  -1 -19    7.28    2.71
  36   1 -19    3.03    2.18
 -36   1  19   -0.39    1.88
 -36  -1  19    4.60    2.09
 -36  -1  17   -0.23    4.22
  36  -1 -17    2.62    7.43
  36   1 -17    1.58    4.14
  36  -1 -17   -0.36    2.06
  36   1 -17    3.94    2.12
 -36   1  17    8.32    2.48
 -36  -1  17    2.02    1.85
 -36  -1  15   -0.34    3.31
  36   1 -15    4.11    2.59
  36  -1 -15    0.78    3.82
 -36   1  15    5.56    6.43
  36   1 -15   10.02    2.48
  36  -1 -15    6.06    2.12
 -36  -1  15    5.65    2.06
 -36   1  15    4.54    2.38
 -36   1  13    0.82    2.86
  36   1 -13    6.96    1.99
 -36  -1  13    1.50    1.97
  36  -1 -13    0.24    1.87
 -36   1  13    4.79    2.24
  36   1 -13    6.62    3.26
  36  -1 -13    4.43    2.70
  36  -1 -11    7.37    1.08
 -36   1  11    1.84    1.41
 -36  -1  11    3.44    1.32
 -36   1  11    7.67    2.80
  36   1 -11    8.39    1.53
  36  -1  -9    3.51    0.89
 -36   1   9    2.77    0.85
 -36  -1   9    2.78    1.20
  36   1  -9    2.12    1.13
 -36  -1   7    4.37    1.27
  36   1  -7    4.09    1.30
  36  -1  -5   14.05    1.97
 -36   1   5    5.34    1.81
 -36   1   3   11.55    2.31
 -36  -1   3   14.43    2.12
  36   1  -3   12.63    2.38
  36  -1  -3   23.26    3.66
  36   2 -18   -1.83    4.31
 -36  -2  18    2.03    4.36
 -36  -2  18    6.44    2.30
  36   2 -16    9.38    2.32
 -36  -2  16    0.59    3.46
  36   2 -16    9.79    3.00
 -36   2  16   14.97    3.11
 -36  -2  16    7.56    2.21
  36  -2 -16   10.74    2.89
 -36  -2  14   -0.85    2.20
  36   2 -14    1.98    2.12
  36  -2 -14    8.28    6.74
  36  -2 -14    2.48    2.71
 -36  -2  14    3.55    1.66
 -36   2  14   -0.32    1.52
  36   2 -14    1.48    1.94
  36   2 -12    4.45    1.47
  36  -2 -12    2.66    1.46
 -36   2  12   -0.83    2.35
  36  -2 -12   -3.77    2.22
 -36   2  12    4.42    2.60
 -36   2  10    0.57    0.81
 -36   2  10   -0.73    1.63
 -36  -2  10    0.25    1.36
  36   2 -10    0.74    1.16
  36   2  -8    0.31    1.16
 -36  -2   8   -0.07    1.08
  36  -2  -8    2.77    1.09
  36   2  -6    8.08    1.57
 -36  -2   6    5.13    1.45
 -36   2   6    4.81    1.34
  36  -2  -6    6.90    2.33
  37   0 -19    0.91   10.32
 -37   0  19   -1.49    6.52
  37   0 -19    0.69    2.15
 -37   0  19    1.46    2.03
  37   0 -17    0.84    4.34
 -37   0  17    0.47    4.88
  37   0 -17   -0.33    1.97
 -37   0  17   -1.63    1.49
 -37   0  15   -8.66    3.29
  37   0 -15   -2.08    2.90
  37   0 -13    0.25    1.63
 -37   0  13    0.67    1.82
  37   0 -13    0.94    2.48
 -37   0  13   -1.76    1.65
 -37   0  11    0.45    1.11
 -37   0  11    2.44    1.85
  37   0 -11    1.84    1.09
  37   0  -9    2.39    1.02
 -37   0   9    4.29    1.08
  37   0  -7    1.80    1.21
 -37   0   7    2.23    1.10
 -37   0   5    3.22    1.49
  37   0  -5    4.61    1.74
  37  -1 -18    6.27    8.10
 -37  -1  18   -0.26    4.27
  37   1 -18   -0.46    4.07
  37  -1 -18   12.40    3.12
  37   1 -18    6.92    2.38
 -37   1  18    3.13    1.94
 -37  -1  18   12.11    2.46
 -37  -1  16    3.04    3.73
  37   1 -16    1.38    2.94
  37  -1 -16    0.18    4.27
 -37   1  16    1.14    6.02
  37   1 -16    6.47    2.14
  37  -1 -16    9.81    2.83
 -37  -1  16    7.24    2.22
 -37   1  16    2.76    2.18
  37  -1 -14    0.58    2.47
  37   1 -14    2.26    1.89
 -37  -1  14   -0.11    2.04
 -37   1  14    4.85    3.34
  37  -1 -14    6.30    2.87
 -37  -1  14    0.31    1.67
  37   1 -14    5.55    2.45
 -37   1  14    2.28    1.92
  37  -1 -12    7.93    1.37
 -37  -1  12    7.80    1.79
 -37   1  12    0.91    1.45
  37  -1 -12   15.96    3.46
 -37  -1  12    9.00    2.57
  37   1 -12    7.98    1.54
 -37   1  10    0.88    0.96
 -37  -1  10    0.43    1.26
  37   1 -10    3.21    1.17
  37  -1 -10    3.39    0.85
 -37  -1   8    1.22    1.13
 -37   1   8    1.15    0.90
  37   1  -8    0.61    1.16
 -37   1   6    1.12    1.23
  37   1  -6    5.69    1.50
 -37  -1   6    4.34    1.43
 -38   0  14    2.47    2.03
  38   0 -14   12.50    3.20
 -38   0  12    0.30    1.42
  38   0 -12    1.08    1.13
 -38   0  12    0.78    2.07
   0   0   0    0.00    0.00



TITL exp_2054_EXP_2052 in I2/a
REM I2/a (#15 in standard setting)
CELL 0.02510  30.526177   6.437155  28.149401  90.0000 109.6953  90.0000
ZERR    4.00   0.204414   0.074363   0.216539   0.0000   0.4656   0.0000
LATT  2
SYMM -x+1/2, y,-z
REM SFAC C H N O Cl
REM ED SFAC according to Peng (1999)
SFAC C 0.136 0.373 0.548 3.281 1.227 13.046 0.597 41.020 0 0 0 0 0.75 6.000
SFAC H 0.037 0.561 0.127 3.791 0.236 13.556 0.129 37.723 0 0 0 0 0.32 1.000
SFAC N 0.137 0.329 0.534 2.673 1.086 10.316 0.455 32.763 0 0 0 0 0.71 7.000
SFAC O 0.143 0.305 0.510 2.268 0.937 8.262 0.392 25.665 0 0 0 0 0.63 8.000
SFAC CL 0.340 0.338 0.891 2.619 2.388 11.068 1.238 33.538 0 0 0 0 0.99 17.000
UNIT 212.00 48.00 16.00 32.00 64.00
TREF
HKLF 4
END
_computing_structure_solution     'SHELXT 2018/2 (Sheldrick, 2018)'
_computing_structure_solution     'SHELXT 2018/2 (Sheldrick, 2018)'
;
_shelx_hkl_checksum                13683
_olex2_submission_special_instructions  'No special instructions were received'
_oxdiff_exptl_absorpt_empirical_details
;
Empirical correction (ABSPACK) includes:
- Absorption correction using spherical harmonics
- Frame scaling
;
_oxdiff_exptl_absorpt_empirical_full_max  2.929
_oxdiff_exptl_absorpt_empirical_full_min  0.216
