
#######################################################################
#
#                 Cambridge Crystallographic Data Centre
#                                CCDC 
#
#######################################################################
#
# If this CIF has been generated directly or indirectly from an entry in the 
# Cambridge Structural Database, then it will include bibliographic, chemical, 
# crystal, experimental, refinement or atomic coordinate data resulting from 
# the CCDC's data processing and validation procedures. Files generated from 
# CSD entries are Copyright 2022 Cambridge Crystallographic Data Centre. They 
# may be used in bona fide research applications only, and may not be copied or 
# further disseminated in any form, whether machine-readable or not, except for 
# the purposes of generating routine backup copies on your local computer 
# system.
# 
# Files arising from any other source may also contain material that is the 
# copyright of third parties, including the originator, and you should check 
# with the originator concerning the permitted uses of the information 
# contained in this CIF.
#
# For further information on the CCDC and the free tools enCIFer and Mercury
# for validating and visualising CIF files, please visit www.ccdc.cam.ac.uk
#
#######################################################################

data_0188
_symmetry_cell_setting           monoclinic
_symmetry_space_group_name_H-M   'P 21/c'
_symmetry_Int_Tables_number      14
loop_
_symmetry_equiv_pos_site_id
_symmetry_equiv_pos_as_xyz
1 x,y,z
2 x,1/2-y,1/2+z
3 -x,-y,-z
4 -x,1/2+y,1/2-z
_cell_length_a                   13.697(9)
_cell_length_b                   3.881(3)
_cell_length_c                   13.4020(10)
_cell_angle_alpha                90.00
_cell_angle_beta                 100.44(1)
_cell_angle_gamma                90.00
_cell_volume                     700.63
loop_
_atom_site_label
_atom_site_type_symbol
_atom_site_fract_x
_atom_site_fract_y
_atom_site_fract_z
O1 O 0.3291 0.422 0.1445
N1 N 0.3499 0.227 -0.1485
H1 H 0.3542 0.1886 -0.2107
C01 C 0.17 0.618 -0.0122
H01 H 0.1635 0.6664 0.0542
C02 C 0.0947 0.716 -0.0889
H02 H 0.0383 0.826 -0.0751
C03 C 0.106 0.642 -0.1927
H03 H 0.0552 0.6931 -0.2467
C04 C 0.1923 0.496 -0.2097
H04 H 0.2005 0.4629 -0.2764
C05 C 0.2676 0.397 -0.1325
C06 C 0.2561 0.448 -0.0281
C07 C 0.4262 0.109 -0.0774
C08 C 0.4189 0.18 0.0283
C09 C 0.3344 0.351 0.0509
C10 C 0.4939 0.054 0.0985
H10 H 0.4897 0.084 0.1664
O1 O 0.6709 -0.422 -0.1445
N1 N 0.6501 -0.227 0.1485
H1 H 0.6458 -0.1886 0.2107
C01 C 0.83 -0.618 0.0122
H01 H 0.8365 -0.6664 -0.0542
C02 C 0.9053 -0.716 0.0889
H02 H 0.9617 -0.826 0.0751
C03 C 0.894 -0.642 0.1927
H03 H 0.9448 -0.6931 0.2467
C04 C 0.8077 -0.496 0.2097
H04 H 0.7995 -0.4629 0.2764
C05 C 0.7324 -0.397 0.1325
C06 C 0.7439 -0.448 0.0281
C07 C 0.5738 -0.109 0.0774
C08 C 0.5811 -0.18 -0.0283
C09 C 0.6656 -0.351 -0.0509
C10 C 0.5061 -0.054 -0.0985
H10 H 0.5103 -0.084 -0.1664
O1 O 0.3291 0.422 1.1445
N1 N 0.3499 0.227 0.8515
H1 H 0.3542 0.1886 0.7893
C01 C 0.17 0.618 0.9878
H01 H 0.1635 0.6664 1.0542
C02 C 0.0947 0.716 0.9111
H02 H 0.0383 0.826 0.9249
C03 C 0.106 0.642 0.8073
H03 H 0.0552 0.6931 0.7533
C04 C 0.1923 0.496 0.7903
H04 H 0.2005 0.4629 0.7236
C05 C 0.2676 0.397 0.8675
C06 C 0.2561 0.448 0.9719
C07 C 0.4262 0.109 0.9226
C08 C 0.4189 0.18 1.0283
C09 C 0.3344 0.351 1.0509
C10 C 0.4939 0.054 1.0985
H10 H 0.4897 0.084 1.1664
O1 O 0.6709 -0.422 0.8555
N1 N 0.6501 -0.227 1.1485
H1 H 0.6458 -0.1886 1.2107
C01 C 0.83 -0.618 1.0122
H01 H 0.8365 -0.6664 0.9458
C02 C 0.9053 -0.716 1.0889
H02 H 0.9617 -0.826 1.0751
C03 C 0.894 -0.642 1.1927
H03 H 0.9448 -0.6931 1.2467
C04 C 0.8077 -0.496 1.2097
H04 H 0.7995 -0.4629 1.2764
C05 C 0.7324 -0.397 1.1325
C06 C 0.7439 -0.448 1.0281
C07 C 0.5738 -0.109 1.0774
C08 C 0.5811 -0.18 0.9717
C09 C 0.6656 -0.351 0.9491
C10 C 0.5061 -0.054 0.9015
H10 H 0.5103 -0.084 0.8336
O1 O 0.3291 1.422 0.1445
N1 N 0.3499 1.227 -0.1485
H1 H 0.3542 1.1886 -0.2107
C01 C 0.17 1.618 -0.0122
H01 H 0.1635 1.6664 0.0542
C02 C 0.0947 1.716 -0.0889
H02 H 0.0383 1.826 -0.0751
C03 C 0.106 1.642 -0.1927
H03 H 0.0552 1.6931 -0.2467
C04 C 0.1923 1.496 -0.2097
H04 H 0.2005 1.4629 -0.2764
C05 C 0.2676 1.397 -0.1325
C06 C 0.2561 1.448 -0.0281
C07 C 0.4262 1.109 -0.0774
C08 C 0.4189 1.18 0.0283
C09 C 0.3344 1.351 0.0509
C10 C 0.4939 1.054 0.0985
H10 H 0.4897 1.084 0.1664
O1 O 0.6709 0.578 -0.1445
N1 N 0.6501 0.773 0.1485
H1 H 0.6458 0.8114 0.2107
C01 C 0.83 0.382 0.0122
H01 H 0.8365 0.3336 -0.0542
C02 C 0.9053 0.284 0.0889
H02 H 0.9617 0.174 0.0751
C03 C 0.894 0.358 0.1927
H03 H 0.9448 0.3069 0.2467
C04 C 0.8077 0.504 0.2097
H04 H 0.7995 0.5371 0.2764
C05 C 0.7324 0.603 0.1325
C06 C 0.7439 0.552 0.0281
C07 C 0.5738 0.891 0.0774
C08 C 0.5811 0.82 -0.0283
C09 C 0.6656 0.649 -0.0509
C10 C 0.5061 0.946 -0.0985
H10 H 0.5103 0.916 -0.1664
O1 O 0.3291 1.422 1.1445
N1 N 0.3499 1.227 0.8515
H1 H 0.3542 1.1886 0.7893
C01 C 0.17 1.618 0.9878
H01 H 0.1635 1.6664 1.0542
C02 C 0.0947 1.716 0.9111
H02 H 0.0383 1.826 0.9249
C03 C 0.106 1.642 0.8073
H03 H 0.0552 1.6931 0.7533
C04 C 0.1923 1.496 0.7903
H04 H 0.2005 1.4629 0.7236
C05 C 0.2676 1.397 0.8675
C06 C 0.2561 1.448 0.9719
C07 C 0.4262 1.109 0.9226
C08 C 0.4189 1.18 1.0283
C09 C 0.3344 1.351 1.0509
C10 C 0.4939 1.054 1.0985
H10 H 0.4897 1.084 1.1664
O1 O 0.6709 0.578 0.8555
N1 N 0.6501 0.773 1.1485
H1 H 0.6458 0.8114 1.2107
C01 C 0.83 0.382 1.0122
H01 H 0.8365 0.3336 0.9458
C02 C 0.9053 0.284 1.0889
H02 H 0.9617 0.174 1.0751
C03 C 0.894 0.358 1.1927
H03 H 0.9448 0.3069 1.2467
C04 C 0.8077 0.504 1.2097
H04 H 0.7995 0.5371 1.2764
C05 C 0.7324 0.603 1.1325
C06 C 0.7439 0.552 1.0281
C07 C 0.5738 0.891 1.0774
C08 C 0.5811 0.82 0.9717
C09 C 0.6656 0.649 0.9491
C10 C 0.5061 0.946 0.9015
H10 H 0.5103 0.916 0.8336
O1 O 0.3291 0.078 0.6445
N1 N 0.3499 0.273 0.3515
H1 H 0.3542 0.3114 0.2893
C01 C 0.17 -0.118 0.4878
H01 H 0.1635 -0.1664 0.5542
C02 C 0.0947 -0.216 0.4111
H02 H 0.0383 -0.326 0.4249
C03 C 0.106 -0.142 0.3073
H03 H 0.0552 -0.1931 0.2533
C04 C 0.1923 0.004 0.2903
H04 H 0.2005 0.0371 0.2236
C05 C 0.2676 0.103 0.3675
C06 C 0.2561 0.052 0.4719
C07 C 0.4262 0.391 0.4226
C08 C 0.4189 0.32 0.5283
C09 C 0.3344 0.149 0.5509
C10 C 0.4939 0.446 0.5985
H10 H 0.4897 0.416 0.6664
O1 O 0.6709 0.922 0.3555
N1 N 0.6501 0.727 0.6485
H1 H 0.6458 0.6886 0.7107
C01 C 0.83 1.118 0.5122
H01 H 0.8365 1.1664 0.4458
C02 C 0.9053 1.216 0.5889
H02 H 0.9617 1.326 0.5751
C03 C 0.894 1.142 0.6927
H03 H 0.9448 1.1931 0.7467
C04 C 0.8077 0.996 0.7097
H04 H 0.7995 0.9629 0.7764
C05 C 0.7324 0.897 0.6325
C06 C 0.7439 0.948 0.5281
C07 C 0.5738 0.609 0.5774
C08 C 0.5811 0.68 0.4717
C09 C 0.6656 0.851 0.4491
C10 C 0.5061 0.554 0.4015
H10 H 0.5103 0.584 0.3336

#END
