data_exp_2056_exp_2057
_audit_creation_date               2023-10-23
_audit_creation_method
;
Olex2 1.5
(compiled 2023.08.24 svn.re1ec1418 for OlexSys, GUI svn.r6817)
;
_shelx_SHELXL_version_number       '2018/3'
_audit_contact_author_address      ?
_audit_contact_author_email        ?
_audit_contact_author_name         ''
_audit_contact_author_phone        ?
_publ_contact_author_id_orcid      ?
_publ_section_references
;
Dolomanov, O.V., Bourhis, L.J., Gildea, R.J, Howard, J.A.K. & Puschmann, H.
 (2009), J. Appl. Cryst. 42, 339-341.

Sheldrick, G.M. (2015). Acta Cryst. A71, 3-8.

Sheldrick, G.M. (2015). Acta Cryst. C71, 3-8.
;
_chemical_name_common              ?
_chemical_name_systematic          ?
_chemical_formula_moiety           'C26 H6 Cl8 N2 O4'
_chemical_formula_sum              'C26 H6 Cl8 N2 O4'
_chemical_formula_weight           693.97
_chemical_melting_point            ?
_chemical_oxdiff_formula           'c26 h6 Cl8 n2 o4'
loop_
  _atom_type_symbol
  _atom_type_description
  _atom_type_scat_dispersion_real
  _atom_type_scat_dispersion_imag
  _atom_type_scat_source
 'C' 'C' 0.0000 0.0000 'International Tables Vol C Tables 4.2.6.8 and 6.1.1.4'
 'H' 'H' 0.0000 0.0000 'International Tables Vol C Tables 4.2.6.8 and 6.1.1.4'
 'Cl' 'Cl' 0.0000 0.0000 'International Tables Vol C Tables 4.2.6.8 and 6.1.1.4'
 'N' 'N' 0.0000 0.0000 'International Tables Vol C Tables 4.2.6.8 and 6.1.1.4'
 'O' 'O' 0.0000 0.0000 'International Tables Vol C Tables 4.2.6.8 and 6.1.1.4'

_diffrn_oxdiff_scatteringfactors_ed
;
Peng,L.M. (1999) Micron 30, 625-648
;
_shelx_space_group_comment
;
The symmetry employed for this shelxl refinement is uniquely defined
by the following loop, which should always be used as a source of
symmetry information in preference to the above space-group names.
They are only intended as comments.
;
_space_group_crystal_system        'monoclinic'
_space_group_IT_number             14
_space_group_name_H-M_alt          'P 1 21/c 1'
_space_group_name_Hall             '-P 2ybc'
loop_
  _space_group_symop_operation_xyz
 'x, y, z'
 '-x, y+1/2, -z+1/2'
 '-x, -y, -z'
 'x, -y-1/2, z-1/2'

_cell_length_a                     19.6(4)
_cell_length_b                     7.9(3)
_cell_length_c                     17.6(7)
_cell_angle_alpha                  90
_cell_angle_beta                   106.3(17)
_cell_angle_gamma                  90
_cell_volume                       2616(145)
_cell_formula_units_Z              4
_cell_measurement_reflns_used      368
_cell_measurement_temperature      293(2)
_cell_measurement_theta_max        0.8470
_cell_measurement_theta_min        0.1110
_shelx_estimated_absorpt_T_max     ?
_shelx_estimated_absorpt_T_min     ?
_exptl_absorpt_coefficient_mu      0.000
_exptl_absorpt_correction_T_max    1.00000
_exptl_absorpt_correction_T_min    0.13004
_exptl_absorpt_correction_type     multi-scan
_exptl_absorpt_process_details
;
CrysAlisPro 1.171.43.65a (Rigaku Oxford Diffraction, 2023)
Empirical absorption correction using spherical harmonics,
implemented in SCALE3 ABSPACK scaling algorithm.
;
_exptl_absorpt_special_details     ?
_exptl_crystal_colour              ?
_exptl_crystal_density_diffrn      1.762
_exptl_crystal_density_meas        ?
_exptl_crystal_density_method      ?
_exptl_crystal_description         ?
_exptl_crystal_F_000               478
_exptl_crystal_size_max            ?
_exptl_crystal_size_mid            ?
_exptl_crystal_size_min            ?
_exptl_transmission_factor_max     ?
_exptl_transmission_factor_min     ?
_diffrn_reflns_av_R_equivalents    0.2139
_diffrn_reflns_av_unetI/netI       0.1696
_diffrn_reflns_Laue_measured_fraction_full  0.910
_diffrn_reflns_Laue_measured_fraction_max  0.907
_diffrn_reflns_limit_h_max         23
_diffrn_reflns_limit_h_min         -23
_diffrn_reflns_limit_k_max         9
_diffrn_reflns_limit_k_min         -9
_diffrn_reflns_limit_l_max         19
_diffrn_reflns_limit_l_min         -19
_diffrn_reflns_number              15226
_diffrn_reflns_point_group_measured_fraction_full  0.910
_diffrn_reflns_point_group_measured_fraction_max  0.907
_diffrn_reflns_theta_full          0.863
_diffrn_reflns_theta_max           0.866
_diffrn_reflns_theta_min           0.097
_diffrn_ambient_temperature        293(2)
_diffrn_detector                   'Hybrid Pixel Array Detector'
_diffrn_detector_area_resol_mean   10.0000
_diffrn_detector_type              'HyPix3000 fast'
_diffrn_measured_fraction_theta_full  0.910
_diffrn_measured_fraction_theta_max  0.907
_diffrn_measurement_details
;
List of Runs (angles in degrees, time in seconds):

  # Type    Start    End  Width  t~exp~   \w     \q     \k     \f   Frames
--------------------------------------------------------------------------
  1  \w    -10.00  70.00   0.25    0.50    --    0.00   0.00   0.00  320
  2  \w    -50.00  50.00   0.25    0.50    --    0.00   0.00   0.00  400
;
_diffrn_measurement_device         'electron diffractometer'
_diffrn_measurement_device_type   
 'XtaLAB Synergy-ED, HyPix3000 fast, electron source at 200keV'
_diffrn_measurement_method         '\w scans'
_diffrn_orient_matrix_type        
 'CrysAlisPro convention (1999,Acta A55,543-557)'
_diffrn_orient_matrix_UB_11        0.0014467000
_diffrn_orient_matrix_UB_12        0.0001622000
_diffrn_orient_matrix_UB_13        0.0000847000
_diffrn_orient_matrix_UB_21        -0.0003074000
_diffrn_orient_matrix_UB_22        0.0020477000
_diffrn_orient_matrix_UB_23        -0.0010212000
_diffrn_orient_matrix_UB_31        0.0001390000
_diffrn_orient_matrix_UB_32        0.0024236000
_diffrn_orient_matrix_UB_33        0.0008551000
_diffrn_radiation_monochromator    'transmission electron microscope'
_diffrn_radiation_probe            electron
_diffrn_radiation_type             'transmission electron microscope'
_diffrn_radiation_wavelength       0.0251
_diffrn_source                     'transmission electron microscope'
_diffrn_source_type                LaB6
_reflns_Friedel_coverage           0.000
_reflns_Friedel_fraction_full      .
_reflns_Friedel_fraction_max       .
_reflns_number_gt                  2383
_reflns_number_total               4354
_reflns_special_details
;
 Reflections were merged by SHELXL according to the crystal
 class for the calculation of statistics and refinement.
 
 _reflns_Friedel_fraction is defined as the number of unique
 Friedel pairs measured divided by the number that would be
 possible theoretically, ignoring centric projections and
 systematic absences.
;
_reflns_threshold_expression       'I > 2\s(I)'
_computing_cell_refinement         'CrysAlisPro 1.171.43.65a (Rigaku OD, 2023)'
_computing_data_collection        
 'CrysAlisPro system (CCD 43.65a 64-bit (release 18-03-2023))'
_computing_data_reduction          'CrysAlisPro 1.171.43.65a (Rigaku OD, 2023)'
_computing_molecular_graphics      'Olex2 1.5 (Dolomanov et al., 2009)'
_computing_publication_material    'Olex2 1.5 (Dolomanov et al., 2009)'
_computing_structure_refinement    'SHELXL 2018/3 (Sheldrick, 2015)'
_computing_structure_solution      'SHELXT 2018/2 (Sheldrick, 2018)'
_refine_diff_density_max           0.431
_refine_diff_density_min           -0.311
_refine_diff_density_rms           0.134
_refine_ls_extinction_coef         1842(19)
_refine_ls_extinction_expression  
 'Fc^*^=kFc[1+0.001xFc^2^\l^3^/sin(2\q)]^-1/4^'
_refine_ls_extinction_method       'SHELXL-2018/3 (Sheldrick 2018)'
_refine_ls_goodness_of_fit_ref     2.505
_refine_ls_hydrogen_treatment      constr
_refine_ls_matrix_type             full
_refine_ls_number_parameters       326
_refine_ls_number_reflns           4354
_refine_ls_number_restraints       632
_refine_ls_R_factor_all            0.3649
_refine_ls_R_factor_gt             0.2866
_refine_ls_restrained_S_all        2.371
_refine_ls_shift/su_max            0.003
_refine_ls_shift/su_mean           0.000
_refine_ls_structure_factor_coef   Fsqd
_refine_ls_weighting_details      
 'w=1/[\s^2^(Fo^2^)+(0.1000P)^2^] where P=(Fo^2^+2Fc^2^)/3'
_refine_ls_weighting_scheme        calc
_refine_ls_wR_factor_gt            0.5330
_refine_ls_wR_factor_ref           0.5519
_refine_special_details            ?
_olex2_refinement_description
;
1. Fixed Uiso
 At 1.2 times of:
  All C(H) groups, All N(H) groups
2. Restrained distances
 N00N-C00Q = N00N-C00G
 1.469 with sigma of 0.02
 C013-C00X = C00Y-C00X = C019-C00L = C019-C013
 1.54 with sigma of 0.02
 O016-C019
 1.2 with sigma of 0.02
 C00Y-C013
 2.56 with sigma of 0.04
 C019-C00Y
 2.56 with sigma of 0.04
 C019-C00X
 2.56 with sigma of 0.04
 C00L-C013
 2.56 with sigma of 0.04
3. Uiso/Uaniso restraints and constraints
Cl \\sim Cl01 \\sim C00F \\sim C00E \\sim C00J \\sim C00C \\sim C00Q \\sim Cl02
\\sim C00P \\sim C00G \\sim C00I \\sim O009 \\sim N00N \\sim Cl04 \\sim O00U
\\sim Cl03 \\sim C2 \\sim C00K \\sim C00D \\sim N00A \\sim C00R \\sim C1 \\sim
C010 \\sim C00B \\sim C00V \\sim C00T \\sim C013 \\sim C00X \\sim C019 \\sim
C00Y \\sim O00Z \\sim C00L \\sim O016 \\sim C00O \\sim C012 \\sim C00M \\sim
Cl3 \\sim C00S \\sim Cl1 \\sim Cl2: within 2A with sigma of 0.04 and sigma for
terminal atoms of 0.08 within 2A
4. Rigid body (RIGU) restrains
 O00Z, Cl01, C00F, C00E, C00J, C00C, C00Q, Cl02, C00P, C00G, C00I, O009, N00N,
 Cl04, O00U, Cl03, C2, C00K, C00D, N00A, C00R, C1, C010, C00B, C00V, C00T, C013,
  C00X, C019, C00Y, C00L, O016, C00O, C012, C00M, Cl, Cl3, C00S, Cl1, Cl2
 with sigma for 1-2 distances of 0.004 and sigma for 1-3 distances of 0.004
5.a Aromatic/amide H refined with riding coordinates:
 N00A(H00A), C00B(H00B), C00D(H00D), C1(H1), C00T(H00T), C00V(H00V)
5.b Fitted hexagon refined as free rotating group:
 C00B(C00R,C00K,C2,C00D,C1), C00C(C00E,C00F,C00J,C00P,C00I), C00L(C012,C00S,
 C00M,C00O,C00Y)
;
_atom_sites_solution_hydrogens     geom
_atom_sites_solution_primary       dual
_atom_sites_solution_secondary     ?
loop_
  _atom_site_label
  _atom_site_type_symbol
  _atom_site_fract_x
  _atom_site_fract_y
  _atom_site_fract_z
  _atom_site_U_iso_or_equiv
  _atom_site_adp_type
  _atom_site_occupancy
  _atom_site_site_symmetry_order
  _atom_site_calc_flag
  _atom_site_refinement_flags_posn
  _atom_site_refinement_flags_adp
  _atom_site_refinement_flags_occupancy
  _atom_site_disorder_assembly
  _atom_site_disorder_group
 Cl01 Cl 0.8634(3) 0.0266(9) 0.5329(7) 0.084(3) Uani 1 1 d . U . . .
 Cl02 Cl 0.9550(3) 0.1194(8) 0.4145(6) 0.089(4) Uani 1 1 d . U . . .
 Cl03 Cl 0.7266(3) 0.4066(8) 0.2049(7) 0.087(3) Uani 1 1 d . U . . .
 Cl04 Cl 0.8853(4) 0.2919(9) 0.2523(7) 0.095(4) Uani 1 1 d . U . . .
 Cl2 Cl 0.8965(5) 0.9145(11) 0.9657(9) 0.133(5) Uani 1 1 d . U . . .
 Cl3 Cl 0.7328(5) 0.8224(11) 0.9352(9) 0.120(4) Uani 1 1 d . U . . .
 O009 O 0.7012(6) 0.0709(15) 0.5240(13) 0.080(5) Uani 1 1 d . U . . .
 N00A N 0.6148(7) 0.3784(15) 0.5548(14) 0.081(4) Uani 1 1 d . U . . .
 H00A H 0.659424 0.397034 0.539159 0.097 Uiso 1 1 calc R U . . .
 C00B C 0.4401(3) 0.1913(11) 0.4679(7) 0.077(5) Uani 1 1 d G U . . .
 H00B H 0.393011 0.180573 0.478895 0.092 Uiso 1 1 calc R U . . .
 C00R C 0.4953(4) 0.2770(12) 0.5209(7) 0.083(5) Uani 1 1 d G U . . .
 C00K C 0.5608(3) 0.2919(11) 0.5056(7) 0.077(4) Uani 1 1 d G U . . .
 C2 C 0.5711(3) 0.2210(12) 0.4374(7) 0.081(4) Uani 1 1 d G U . . .
 C00D C 0.5160(5) 0.1353(12) 0.3845(6) 0.090(5) Uani 1 1 d G U . . .
 H00D H 0.523413 0.084341 0.335411 0.108 Uiso 1 1 calc R U . . .
 C1 C 0.4505(4) 0.1204(10) 0.3997(7) 0.081(5) Uani 1 1 d G U . . .
 H1 H 0.410793 0.058761 0.361621 0.097 Uiso 1 1 calc R U . . .
 C00C C 0.7243(3) 0.2635(10) 0.3504(7) 0.066(4) Uani 1 1 d G U . . .
 C00E C 0.7547(4) 0.1776(11) 0.4207(6) 0.074(4) Uani 1 1 d G U . . .
 C00F C 0.8259(4) 0.1313(10) 0.4403(6) 0.065(4) Uani 1 1 d G U . . .
 C00J C 0.8666(3) 0.1710(10) 0.3896(7) 0.064(4) Uani 1 1 d G U . . .
 C00P C 0.8361(4) 0.2569(11) 0.3193(6) 0.074(4) Uani 1 1 d G U . . .
 C00I C 0.7650(4) 0.3032(11) 0.2998(6) 0.072(4) Uani 1 1 d G U . . .
 C00G C 0.6509(7) 0.3073(17) 0.3460(11) 0.068(4) Uani 1 1 d D U . . .
 C00L C 0.7457(4) 0.6885(13) 0.7919(8) 0.086(4) Uani 1 1 d DG U . . .
 C012 C 0.7800(6) 0.7704(14) 0.8621(7) 0.114(5) Uani 1 1 d G U . . .
 C00S C 0.8507(6) 0.8181(12) 0.8767(7) 0.098(5) Uani 1 1 d G U . . .
 C00M C 0.8871(4) 0.7838(13) 0.8211(9) 0.098(5) Uani 1 1 d G U . . .
 C00O C 0.8528(5) 0.7019(15) 0.7509(8) 0.103(5) Uani 1 1 d G U . . .
 C00Y C 0.7821(5) 0.6543(14) 0.7363(7) 0.105(5) Uani 1 1 d DG U . . .
 N00N N 0.6377(6) 0.2277(13) 0.4158(10) 0.066(4) Uani 1 1 d D U . . .
 C00Q C 0.7004(6) 0.1550(16) 0.4651(13) 0.072(4) Uani 1 1 d D U . . .
 C00T C 0.5435(7) 0.4313(18) 0.6497(14) 0.086(5) Uani 1 1 d . U . . .
 H00T H 0.538731 0.483573 0.699711 0.103 Uiso 1 1 calc R U . . .
 O00U O 0.6045(7) 0.3765(17) 0.2968(15) 0.105(7) Uani 1 1 d . U . . .
 C00V C 0.4903(6) 0.3516(15) 0.6030(13) 0.074(4) Uani 1 1 d . U . . .
 H00V H 0.445547 0.336794 0.618885 0.089 Uiso 1 1 calc R U . . .
 C00X C 0.7340(9) 0.562(3) 0.6633(13) 0.114(6) Uani 1 1 d D U . . .
 O00Z O 0.7486(9) 0.496(2) 0.6064(19) 0.121(6) Uani 1 1 d . U . . .
 C010 C 0.6096(7) 0.4447(17) 0.6297(15) 0.080(4) Uani 1 1 d . U . . .
 C013 C 0.6641(7) 0.5352(17) 0.6827(12) 0.095(5) Uani 1 1 d D U . . .
 Cl Cl 0.8950(6) 0.6517(13) 0.6761(10) 0.149(5) Uani 1 1 d . U . . .
 Cl1 Cl 0.9751(4) 0.8296(11) 0.8349(11) 0.187(8) Uani 1 1 d . U . . .
 O016 O 0.6219(8) 0.623(2) 0.7952(15) 0.127(7) Uani 1 1 d D U . . .
 C019 C 0.6704(6) 0.6083(18) 0.7675(12) 0.093(5) Uani 1 1 d D U . . .

loop_
  _atom_site_aniso_label
  _atom_site_aniso_U_11
  _atom_site_aniso_U_22
  _atom_site_aniso_U_33
  _atom_site_aniso_U_23
  _atom_site_aniso_U_13
  _atom_site_aniso_U_12
 Cl01 0.056(4) 0.082(5) 0.127(10) 0.013(5) 0.045(5) 0.016(3)
 Cl02 0.028(3) 0.070(4) 0.169(12) 0.020(6) 0.030(4) 0.013(3)
 Cl03 0.066(4) 0.057(4) 0.146(10) 0.012(5) 0.046(5) -0.001(3)
 Cl04 0.082(5) 0.064(4) 0.162(12) 0.011(6) 0.072(6) -0.001(4)
 Cl2 0.131(7) 0.086(6) 0.177(14) 0.005(7) 0.034(8) 0.029(5)
 Cl3 0.110(6) 0.085(5) 0.176(14) 0.012(7) 0.059(7) 0.001(5)
 O009 0.046(6) 0.051(6) 0.157(15) 0.022(8) 0.055(8) 0.011(5)
 N00A 0.045(5) 0.038(6) 0.161(13) 0.019(7) 0.031(7) 0.002(5)
 C00B 0.029(5) 0.058(8) 0.149(14) 0.025(8) 0.033(7) 0.013(5)
 C00R 0.035(5) 0.074(8) 0.152(13) 0.004(9) 0.044(7) 0.005(5)
 C00K 0.035(5) 0.052(7) 0.154(12) 0.001(8) 0.044(6) 0.010(5)
 C2 0.053(6) 0.058(8) 0.147(12) 0.010(8) 0.052(7) 0.014(5)
 C00D 0.062(6) 0.068(9) 0.151(15) 0.010(9) 0.046(8) 0.001(6)
 C1 0.058(7) 0.033(6) 0.156(15) 0.009(8) 0.037(8) -0.017(6)
 C00C 0.044(5) 0.033(6) 0.127(11) -0.003(7) 0.034(6) -0.012(5)
 C00E 0.053(5) 0.047(7) 0.135(12) 0.010(8) 0.050(6) 0.020(5)
 C00F 0.037(5) 0.034(6) 0.128(11) -0.012(7) 0.031(6) 0.001(5)
 C00J 0.033(5) 0.031(6) 0.131(11) -0.003(7) 0.030(6) 0.003(5)
 C00P 0.029(5) 0.064(8) 0.129(12) -0.001(8) 0.024(6) -0.011(5)
 C00I 0.035(5) 0.055(7) 0.134(12) 0.002(8) 0.036(6) -0.001(5)
 C00G 0.045(5) 0.051(7) 0.115(13) -0.005(8) 0.036(6) -0.001(5)
 C00L 0.049(6) 0.050(7) 0.164(13) 0.034(8) 0.038(7) 0.013(5)
 C012 0.099(8) 0.074(10) 0.176(15) 0.009(10) 0.051(8) 0.012(8)
 C00S 0.087(8) 0.033(6) 0.172(14) 0.018(9) 0.031(8) 0.015(6)
 C00M 0.056(7) 0.059(8) 0.174(14) 0.039(9) 0.025(7) 0.010(6)
 C00O 0.051(6) 0.094(11) 0.174(15) 0.020(10) 0.050(7) 0.022(6)
 C00Y 0.066(7) 0.093(10) 0.157(14) 0.017(10) 0.037(7) 0.004(7)
 N00N 0.051(5) 0.040(5) 0.115(12) -0.008(7) 0.036(6) -0.006(4)
 C00Q 0.058(6) 0.039(7) 0.136(13) 0.004(8) 0.056(7) 0.018(6)
 C00T 0.050(6) 0.066(8) 0.146(15) 0.020(9) 0.037(7) 0.015(6)
 O00U 0.069(7) 0.075(8) 0.181(18) 0.056(11) 0.048(9) 0.013(6)
 C00V 0.035(5) 0.052(7) 0.154(14) 0.017(8) 0.057(7) 0.012(5)
 C00X 0.081(8) 0.090(12) 0.176(15) 0.004(11) 0.043(9) -0.016(8)
 O00Z 0.077(9) 0.111(13) 0.174(18) -0.001(12) 0.034(10) 0.004(9)
 C010 0.044(6) 0.038(7) 0.159(13) 0.024(8) 0.031(7) 0.001(5)
 C013 0.068(6) 0.042(7) 0.171(14) 0.009(9) 0.028(7) 0.014(6)
 Cl 0.141(8) 0.129(8) 0.216(16) 0.033(9) 0.114(9) 0.013(7)
 Cl1 0.059(4) 0.087(5) 0.41(2) 0.034(10) 0.064(8) -0.019(4)
 O016 0.081(9) 0.095(10) 0.22(2) -0.017(13) 0.070(11) -0.010(8)
 C019 0.058(7) 0.057(8) 0.166(14) 0.013(9) 0.034(8) 0.005(6)

_geom_special_details
;
 All esds (except the esd in the dihedral angle between two l.s. planes)
 are estimated using the full covariance matrix.  The cell esds are taken
 into account individually in the estimation of esds in distances, angles
 and torsion angles; correlations between esds in cell parameters are only
 used when they are defined by crystal symmetry.  An approximate (isotropic)
 treatment of cell esds is used for estimating esds involving l.s. planes.
;
loop_
  _geom_bond_atom_site_label_1
  _geom_bond_atom_site_label_2
  _geom_bond_distance
  _geom_bond_site_symmetry_2
  _geom_bond_publ_flag
 Cl01 C00F 1.79(6) . ?
 Cl02 C00J 1.71(3) . ?
 Cl03 C00I 1.82(6) . ?
 Cl04 C00P 1.74(5) . ?
 Cl2 C00S 1.75(6) . ?
 Cl3 C012 1.83(5) . ?
 O009 C00Q 1.23(4) . ?
 N00A H00A 1.0000 . ?
 N00A C00K 1.35(3) . ?
 N00A C010 1.45(6) . ?
 C00B H00B 1.0000 . ?
 C00B C00R 1.3900 . ?
 C00B C1 1.3900 . ?
 C00R C00K 1.3900 . ?
 C00R C00V 1.59(6) . ?
 C00K C2 1.3900 . ?
 C2 C00D 1.3900 . ?
 C2 N00N 1.46(3) . ?
 C00D H00D 1.0000 . ?
 C00D C1 1.3900 . ?
 C1 H1 1.0000 . ?
 C00C C00E 1.3900 . ?
 C00C C00I 1.3900 . ?
 C00C C00G 1.46(3) . ?
 C00E C00F 1.3900 . ?
 C00E C00Q 1.50(4) . ?
 C00F C00J 1.3900 . ?
 C00J C00P 1.3900 . ?
 C00P C00I 1.3900 . ?
 C00G N00N 1.47(5) . ?
 C00G O00U 1.20(3) . ?
 C00L C012 1.3900 . ?
 C00L C00Y 1.3900 . ?
 C00L C019 1.55(3) . ?
 C012 C00S 1.3900 . ?
 C00S C00M 1.3900 . ?
 C00M C00O 1.3900 . ?
 C00M Cl1 1.71(3) . ?
 C00O C00Y 1.3900 . ?
 C00O Cl 1.79(5) . ?
 C00Y C00X 1.55(5) . ?
 N00N C00Q 1.41(3) . ?
 C00T H00T 1.0000 . ?
 C00T C00V 1.30(4) . ?
 C00T C010 1.44(3) . ?
 C00V H00V 1.0000 . ?
 C00X O00Z 1.23(5) . ?
 C00X C013 1.52(3) . ?
 C010 C013 1.40(4) . ?
 C013 C019 1.57(6) . ?
 O016 C019 1.19(3) . ?

loop_
  _geom_angle_atom_site_label_1
  _geom_angle_atom_site_label_2
  _geom_angle_atom_site_label_3
  _geom_angle
  _geom_angle_site_symmetry_1
  _geom_angle_site_symmetry_3
  _geom_angle_publ_flag
 C00K N00A H00A 119.2 . . ?
 C00K N00A C010 122(2) . . ?
 C010 N00A H00A 119.2 . . ?
 C00R C00B H00B 120.0 . . ?
 C00R C00B C1 120.0 . . ?
 C1 C00B H00B 120.0 . . ?
 C00B C00R C00V 123.7(17) . . ?
 C00K C00R C00B 120.0 . . ?
 C00K C00R C00V 116.2(16) . . ?
 N00A C00K C00R 121(2) . . ?
 N00A C00K C2 119(2) . . ?
 C2 C00K C00R 120.0 . . ?
 C00K C2 N00N 124.7(16) . . ?
 C00D C2 C00K 120.0 . . ?
 C00D C2 N00N 115(2) . . ?
 C2 C00D H00D 120.0 . . ?
 C2 C00D C1 120.0 . . ?
 C1 C00D H00D 120.0 . . ?
 C00B C1 H1 120.0 . . ?
 C00D C1 C00B 120.0 . . ?
 C00D C1 H1 120.0 . . ?
 C00E C00C C00I 120.0 . . ?
 C00E C00C C00G 109.5(19) . . ?
 C00I C00C C00G 130.4(16) . . ?
 C00C C00E C00F 120.0 . . ?
 C00C C00E C00Q 109(2) . . ?
 C00F C00E C00Q 130.7(18) . . ?
 C00E C00F Cl01 118.3(15) . . ?
 C00J C00F Cl01 122(2) . . ?
 C00J C00F C00E 120.0 . . ?
 C00F C00J Cl02 120.3(18) . . ?
 C00F C00J C00P 120.0 . . ?
 C00P C00J Cl02 119.6(15) . . ?
 C00J C00P Cl04 120(2) . . ?
 C00J C00P C00I 120.0 . . ?
 C00I C00P Cl04 119.9(18) . . ?
 C00C C00I Cl03 122(2) . . ?
 C00P C00I Cl03 118.3(15) . . ?
 C00P C00I C00C 120.0 . . ?
 C00C C00G N00N 104.9(19) . . ?
 O00U C00G C00C 133(2) . . ?
 O00U C00G N00N 122(2) . . ?
 C012 C00L C00Y 120.0 . . ?
 C012 C00L C019 128.3(17) . . ?
 C00Y C00L C019 111(2) . . ?
 C00L C012 Cl3 121(2) . . ?
 C00S C012 Cl3 119.0(18) . . ?
 C00S C012 C00L 120.0 . . ?
 C012 C00S Cl2 121.3(18) . . ?
 C012 C00S C00M 120.0 . . ?
 C00M C00S Cl2 119(2) . . ?
 C00S C00M Cl1 123.7(19) . . ?
 C00O C00M C00S 120.0 . . ?
 C00O C00M Cl1 116.2(19) . . ?
 C00M C00O C00Y 120.0 . . ?
 C00M C00O Cl 123(2) . . ?
 C00Y C00O Cl 116.7(18) . . ?
 C00L C00Y C00X 111(2) . . ?
 C00O C00Y C00L 120.0 . . ?
 C00O C00Y C00X 128.8(17) . . ?
 C2 N00N C00G 127.9(16) . . ?
 C00Q N00N C2 121(2) . . ?
 C00Q N00N C00G 111(2) . . ?
 O009 C00Q C00E 131.4(17) . . ?
 O009 C00Q N00N 123(2) . . ?
 N00N C00Q C00E 105(3) . . ?
 C00V C00T H00T 120.0 . . ?
 C00V C00T C010 120(3) . . ?
 C010 C00T H00T 120.0 . . ?
 C00R C00V H00V 119.6 . . ?
 C00T C00V C00R 121(2) . . ?
 C00T C00V H00V 119.6 . . ?
 O00Z C00X C00Y 130(2) . . ?
 O00Z C00X C013 124(2) . . ?
 C013 C00X C00Y 105(2) . . ?
 C00T C010 N00A 120(2) . . ?
 C013 C010 N00A 124(2) . . ?
 C013 C010 C00T 116(3) . . ?
 C00X C013 C019 109(2) . . ?
 C010 C013 C00X 119(3) . . ?
 C010 C013 C019 131(2) . . ?
 C00L C019 C013 103.0(18) . . ?
 O016 C019 C00L 131(2) . . ?
 O016 C019 C013 125(2) . . ?

loop_
  _geom_torsion_atom_site_label_1
  _geom_torsion_atom_site_label_2
  _geom_torsion_atom_site_label_3
  _geom_torsion_atom_site_label_4
  _geom_torsion
  _geom_torsion_site_symmetry_1
  _geom_torsion_site_symmetry_2
  _geom_torsion_site_symmetry_3
  _geom_torsion_site_symmetry_4
  _geom_torsion_publ_flag
 Cl01 C00F C00J Cl02 0.3(8) . . . . ?
 Cl01 C00F C00J C00P -178.0(7) . . . . ?
 Cl02 C00J C00P Cl04 6.7(8) . . . . ?
 Cl02 C00J C00P C00I -178.3(7) . . . . ?
 Cl04 C00P C00I Cl03 -2.2(7) . . . . ?
 Cl04 C00P C00I C00C 175.0(8) . . . . ?
 Cl2 C00S C00M C00O 177.8(9) . . . . ?
 Cl2 C00S C00M Cl1 0.4(10) . . . . ?
 Cl3 C012 C00S Cl2 3.9(9) . . . . ?
 Cl3 C012 C00S C00M -178.4(9) . . . . ?
 N00A C00K C2 C00D -178.2(10) . . . . ?
 N00A C00K C2 N00N 2.4(12) . . . . ?
 N00A C010 C013 C00X -2(2) . . . . ?
 N00A C010 C013 C019 -176.3(14) . . . . ?
 C00B C00R C00K N00A 178.1(11) . . . . ?
 C00B C00R C00K C2 0.0 . . . . ?
 C00B C00R C00V C00T -179.6(10) . . . . ?
 C00R C00B C1 C00D 0.0 . . . . ?
 C00R C00K C2 C00D 0.0 . . . . ?
 C00R C00K C2 N00N -179.5(10) . . . . ?
 C00K N00A C010 C00T -5(2) . . . . ?
 C00K N00A C010 C013 -180.0(12) . . . . ?
 C00K C00R C00V C00T 4.5(16) . . . . ?
 C00K C2 C00D C1 0.0 . . . . ?
 C00K C2 N00N C00G -118(3) . . . . ?
 C00K C2 N00N C00Q 61(3) . . . . ?
 C2 C00D C1 C00B 0.0 . . . . ?
 C2 N00N C00Q O009 7(2) . . . . ?
 C2 N00N C00Q C00E 176.4(10) . . . . ?
 C00D C2 N00N C00G 62(3) . . . . ?
 C00D C2 N00N C00Q -119(3) . . . . ?
 C1 C00B C00R C00K 0.0 . . . . ?
 C1 C00B C00R C00V -175.8(10) . . . . ?
 C00C C00E C00F Cl01 178.1(7) . . . . ?
 C00C C00E C00F C00J 0.0 . . . . ?
 C00C C00E C00Q O009 170.2(18) . . . . ?
 C00C C00E C00Q N00N 1.6(11) . . . . ?
 C00C C00G N00N C2 -175.2(11) . . . . ?
 C00C C00G N00N C00Q 6.0(15) . . . . ?
 C00E C00C C00I Cl03 177.0(7) . . . . ?
 C00E C00C C00I C00P 0.0 . . . . ?
 C00E C00C C00G N00N -4.9(12) . . . . ?
 C00E C00C C00G O00U -178.0(17) . . . . ?
 C00E C00F C00J Cl02 178.3(7) . . . . ?
 C00E C00F C00J C00P 0.0 . . . . ?
 C00F C00E C00Q O009 -12(2) . . . . ?
 C00F C00E C00Q N00N 179.8(8) . . . . ?
 C00F C00J C00P Cl04 -175.0(8) . . . . ?
 C00F C00J C00P C00I 0.0 . . . . ?
 C00J C00P C00I Cl03 -177.1(7) . . . . ?
 C00J C00P C00I C00C 0.0 . . . . ?
 C00I C00C C00E C00F 0.0 . . . . ?
 C00I C00C C00E C00Q 178.5(9) . . . . ?
 C00I C00C C00G N00N 179.3(8) . . . . ?
 C00I C00C C00G O00U 6(2) . . . . ?
 C00G C00C C00E C00F -176.3(9) . . . . ?
 C00G C00C C00E C00Q 2.2(10) . . . . ?
 C00G C00C C00I Cl03 -7.6(11) . . . . ?
 C00G C00C C00I C00P 175.4(11) . . . . ?
 C00G N00N C00Q O009 -174.6(16) . . . . ?
 C00G N00N C00Q C00E -4.7(14) . . . . ?
 C00L C012 C00S Cl2 -177.7(9) . . . . ?
 C00L C012 C00S C00M 0.0 . . . . ?
 C00L C00Y C00X O00Z -172(3) . . . . ?
 C00L C00Y C00X C013 -2.9(16) . . . . ?
 C012 C00L C00Y C00O 0.0 . . . . ?
 C012 C00L C00Y C00X 179.7(12) . . . . ?
 C012 C00L C019 C013 -179.3(8) . . . . ?
 C012 C00L C019 O016 15(3) . . . . ?
 C012 C00S C00M C00O 0.0 . . . . ?
 C012 C00S C00M Cl1 -177.4(8) . . . . ?
 C00S C00M C00O C00Y 0.0 . . . . ?
 C00S C00M C00O Cl -179.7(10) . . . . ?
 C00M C00O C00Y C00L 0.0 . . . . ?
 C00M C00O C00Y C00X -179.6(14) . . . . ?
 C00O C00Y C00X O00Z 8(4) . . . . ?
 C00O C00Y C00X C013 176.8(9) . . . . ?
 C00Y C00L C012 Cl3 178.3(9) . . . . ?
 C00Y C00L C012 C00S 0.0 . . . . ?
 C00Y C00L C019 C013 -5.8(12) . . . . ?
 C00Y C00L C019 O016 -171.7(19) . . . . ?
 C00Y C00X C013 C010 -176.3(13) . . . . ?
 C00Y C00X C013 C019 -0.9(18) . . . . ?
 N00N C2 C00D C1 179.5(9) . . . . ?
 C00Q C00E C00F Cl01 0.0(11) . . . . ?
 C00Q C00E C00F C00J -178.1(11) . . . . ?
 C00T C010 C013 C00X -177.0(14) . . . . ?
 C00T C010 C013 C019 9(2) . . . . ?
 O00U C00G N00N C2 -1(2) . . . . ?
 O00U C00G N00N C00Q -179.9(16) . . . . ?
 C00V C00R C00K N00A -5.8(11) . . . . ?
 C00V C00R C00K C2 176.1(10) . . . . ?
 C00V C00T C010 N00A 4(2) . . . . ?
 C00V C00T C010 C013 179.0(14) . . . . ?
 C00X C013 C019 C00L 3.8(16) . . . . ?
 C00X C013 C019 O016 170.9(18) . . . . ?
 O00Z C00X C013 C010 -7(3) . . . . ?
 O00Z C00X C013 C019 169(2) . . . . ?
 C010 N00A C00K C00R 6.5(17) . . . . ?
 C010 N00A C00K C2 -175.4(11) . . . . ?
 C010 C00T C00V C00R -4(2) . . . . ?
 C010 C013 C019 C00L 178.5(13) . . . . ?
 C010 C013 C019 O016 -14(3) . . . . ?
 Cl C00O C00Y C00L 179.8(9) . . . . ?
 Cl C00O C00Y C00X 0.2(14) . . . . ?
 Cl1 C00M C00O C00Y 177.6(8) . . . . ?
 Cl1 C00M C00O Cl -2.2(9) . . . . ?
 C019 C00L C012 Cl3 -8.7(12) . . . . ?
 C019 C00L C012 C00S 173.0(11) . . . . ?
 C019 C00L C00Y C00O -174.1(9) . . . . ?
 C019 C00L C00Y C00X 5.6(12) . . . . ?

_shelx_res_file
;
TITL exp_2056_exp_2057_a.res in P2(1)/c
    exp_2056_exp_2057.res
    created by SHELXL-2018/3 at 14:24:30 on 23-Oct-2023
REM Old TITL exp_2056_exp_2057_a.res in P2(1)/c
REM SHELXT solution in P2(1)/c: R1 0.429, Rweak 0.273, Alpha 0.300
REM <I/s> 4.968 for 272 systematic absences, Orientation as input
REM Formula found by SHELXT: C29 Cl4 N7 O5
CELL 0.0251 19.6274 7.8852 17.6067 90 106.29 90
ZERR 4 0.3717 0.2522 0.7139 0 1.673 0
LATT 1
SYMM -X,0.5+Y,0.5-Z
SFAC  C 0.136 0.373 0.548 3.281 1.227 13.046 0.597 41.02 0 0 0 0 0.75 12.011
SFAC  H 0.037 0.561 0.127 3.791 0.236 13.556 0.129 37.723 0 0 0 0 0.32 1.008
SFAC  Cl 0.340 0.338 0.891 2.619 2.388 11.068 1.238 33.538 0 0 0 0 0.99 35.453
SFAC  N 0.137 0.329 0.534 2.673 1.086 10.316 0.455 32.763 0 0 0 0 0.71 14.007
SFAC  O 0.143 0.305 0.51 2.268 0.937 8.262 0.392 25.665 0 0 0 0 0.63 15.999
UNIT 104 24 32 8 16

DFIX 1.469 N00N C00Q N00N C00G
DFIX 1.54 C013 C00X C00Y C00X C019 C00L C019 C013
RIGU O00Z Cl01 C00F C00E C00J C00C C00Q Cl02 C00P C00G C00I O009 N00N Cl04 =
 O00U CL03 C2 C00K C00D N00A C00R C1 C010 C00B C00V C00T C013 C00X C019 C00Y =
 C00L O016 C00O C012 C00M CL CL3 C00S CL1 CL2
SIMU Cl Cl01 C00F C00E C00J C00C C00Q Cl02 C00P C00G C00I O009 N00N Cl04 =
 O00U CL03 C2 C00K C00D N00A C00R C1 C010 C00B C00V C00T C013 C00X C019 C00Y =
 O00Z C00L O016 C00O C012 C00M CL3 C00S CL1 CL2
DANG 2.56 C00Y C013
DANG 2.56 C019 C00Y
DANG 2.56 C019 C00X
DANG 2.56 C00L C013
DFIX 1.2 O016 C019

L.S. 20 0 0
PLAN  30
CONF
BOND
list 4
MORE -1
BOND $H
fmap 2 53
acta
OMIT -4 0 4
OMIT 0 4 6
OMIT 4 4 2
OMIT 8 0 0
REM <olex2.extras>
REM <HklSrc "%.\\exp_2056_exp_2057.hkl">
REM </olex2.extras>

WGHT    0.100000
EXTI 1841.878296
FVAR       1.18197
CL01  3    0.863374    0.026612    0.532923    11.00000    0.05621    0.08180 =
         0.12692    0.01311    0.04460    0.01558
CL02  3    0.954978    0.119355    0.414476    11.00000    0.02832    0.06973 =
         0.16903    0.01955    0.03021    0.01262
CL03  3    0.726622    0.406559    0.204919    11.00000    0.06628    0.05719 =
         0.14624    0.01209    0.04593   -0.00110
CL04  3    0.885316    0.291882    0.252256    11.00000    0.08151    0.06375 =
         0.16190    0.01090    0.07161   -0.00082
CL2   3    0.896523    0.914457    0.965719    11.00000    0.13102    0.08604 =
         0.17700    0.00453    0.03406    0.02860
CL3   3    0.732843    0.822375    0.935230    11.00000    0.11043    0.08548 =
         0.17612    0.01244    0.05899    0.00101
O009  5    0.701235    0.070884    0.523962    11.00000    0.04600    0.05119 =
         0.15729    0.02249    0.05454    0.01067
N00A  4    0.614806    0.378374    0.554813    11.00000    0.04535    0.03787 =
         0.16072    0.01857    0.03092    0.00225
AFIX  43  1.0000
H00A  2    0.659424    0.397034    0.539159    11.00000   -1.20000
AFIX  66
C00B  1    0.440132    0.191275    0.467928    11.00000    0.02887    0.05764 =
         0.14919    0.02456    0.03291    0.01254
AFIX  43  1.0000
H00B  2    0.393011    0.180573    0.478895    11.00000   -1.20000
AFIX  65
C00R  1    0.495290    0.276996    0.520889    11.00000    0.03485    0.07363 =
         0.15200    0.00441    0.04405    0.00508
C00K  1    0.560789    0.291872    0.505645    11.00000    0.03463    0.05231 =
         0.15360    0.00074    0.04395    0.01004
C2    1    0.571131    0.221028    0.437440    11.00000    0.05342    0.05802 =
         0.14662    0.00985    0.05161    0.01413
C00D  1    0.515973    0.135307    0.384479    11.00000    0.06182    0.06791 =
         0.15089    0.00999    0.04644    0.00110
AFIX  43  1.0000
H00D  2    0.523413    0.084341    0.335411    11.00000   -1.20000
AFIX  65
C1    1    0.450474    0.120430    0.399722    11.00000    0.05808    0.03312 =
         0.15618    0.00926    0.03732   -0.01658
AFIX  43  1.0000
H1    2    0.410793    0.058761    0.361621    11.00000   -1.20000
AFIX  66
C00C  1    0.724296    0.263500    0.350437    11.00000    0.04357    0.03252 =
         0.12676   -0.00339    0.03381   -0.01168
C00E  1    0.754748    0.177573    0.420704    11.00000    0.05343    0.04728 =
         0.13463    0.01048    0.04999    0.02013
C00F  1    0.825901    0.131319    0.440292    11.00000    0.03708    0.03431 =
         0.12782   -0.01244    0.03130    0.00070
C00J  1    0.866601    0.170990    0.389613    11.00000    0.03275    0.03121 =
         0.13125   -0.00296    0.02970    0.00329
C00P  1    0.836150    0.256917    0.319345    11.00000    0.02899    0.06420 =
         0.12858   -0.00065    0.02354   -0.01109
C00I  1    0.764998    0.303172    0.299756    11.00000    0.03505    0.05520 =
         0.13355    0.00227    0.03559   -0.00112
AFIX   0
C00G  1    0.650929    0.307264    0.346043    11.00000    0.04528    0.05103 =
         0.11472   -0.00527    0.03640   -0.00135
AFIX  66
C00L  1    0.745710    0.688542    0.791854    11.00000    0.04880    0.05041 =
         0.16420    0.03387    0.03844    0.01321
C012  1    0.780034    0.770428    0.862075    11.00000    0.09941    0.07411 =
         0.17578    0.00894    0.05131    0.01196
C00S  1    0.850726    0.818066    0.876714    11.00000    0.08701    0.03309 =
         0.17164    0.01760    0.03131    0.01488
C00M  1    0.887096    0.783818    0.821131    11.00000    0.05647    0.05914 =
         0.17401    0.03873    0.02470    0.00981
C00O  1    0.852773    0.701933    0.750910    11.00000    0.05060    0.09386 =
         0.17436    0.01977    0.05008    0.02218
C00Y  1    0.782080    0.654294    0.736270    11.00000    0.06641    0.09316 =
         0.15722    0.01692    0.03676    0.00359
AFIX   0
N00N  4    0.637743    0.227667    0.415836    11.00000    0.05133    0.03995 =
         0.11545   -0.00838    0.03608   -0.00588
C00Q  1    0.700412    0.155002    0.465096    11.00000    0.05758    0.03909 =
         0.13569    0.00446    0.05577    0.01771
C00T  1    0.543547    0.431321    0.649724    11.00000    0.05030    0.06594 =
         0.14591    0.01981    0.03667    0.01547
AFIX  43  1.0000
H00T  2    0.538731    0.483573    0.699711    11.00000   -1.20000
AFIX   0
O00U  5    0.604466    0.376489    0.296817    11.00000    0.06859    0.07454 =
         0.18117    0.05591    0.04793    0.01327
C00V  1    0.490282    0.351555    0.603028    11.00000    0.03542    0.05167 =
         0.15388    0.01719    0.05667    0.01156
AFIX  43  1.0000
H00V  2    0.445547    0.336794    0.618885    11.00000   -1.20000
AFIX   0
C00X  1    0.734015    0.562090    0.663346    11.00000    0.08125    0.09015 =
         0.17624    0.00445    0.04338   -0.01558
O00Z  5    0.748556    0.495949    0.606368    11.00000    0.07651    0.11062 =
         0.17351   -0.00056    0.03357    0.00430
C010  1    0.609615    0.444735    0.629680    11.00000    0.04377    0.03847 =
         0.15877    0.02381    0.03115    0.00126
C013  1    0.664079    0.535246    0.682715    11.00000    0.06766    0.04236 =
         0.17069    0.00877    0.02799    0.01392
CL    3    0.894973    0.651657    0.676105    11.00000    0.14110    0.12911 =
         0.21595    0.03301    0.11444    0.01327
CL1   3    0.975120    0.829633    0.834944    11.00000    0.05920    0.08690 =
         0.41271    0.03385    0.06414   -0.01852
O016  5    0.621904    0.623411    0.795250    11.00000    0.08140    0.09516 =
         0.22189   -0.01750    0.06991   -0.01049
C019  1    0.670354    0.608290    0.767547    11.00000    0.05835    0.05707 =
         0.16629    0.01311    0.03379    0.00542
HKLF 4




REM  exp_2056_exp_2057_a.res in P2(1)/c
REM wR2 = 0.5519, GooF = S = 2.505, Restrained GooF = 2.371 for all data
REM R1 = 0.2866 for 2383 Fo > 4sig(Fo) and 0.3649 for all 4354 data
REM 326 parameters refined using 632 restraints

END

WGHT      0.2000      0.0000

REM Highest difference peak  0.431,  deepest hole -0.311,  1-sigma level  0.134
Q1    1   0.7965  0.2200  0.3606  11.00000  0.05    0.43
Q2    1   0.9027  0.7567  0.8016  11.00000  0.05    0.43
Q3    1   0.9467  0.8988  0.9219  11.00000  0.05    0.41
Q4    1   0.7984  0.8659  0.9561  11.00000  0.05    0.40
Q5    1   0.9073  0.8404  0.8896  11.00000  0.05    0.40
Q6    1   0.9542  0.7558  0.7561  11.00000  0.05    0.38
Q7    1   0.9215  0.2023  0.3451  11.00000  0.05    0.38
Q8    1   0.7596  0.7398  0.8534  11.00000  0.05    0.36
Q9    1   0.7848  0.3577  0.2645  11.00000  0.05    0.36
Q10   1   0.8408  0.6224  0.6586  11.00000  0.05    0.36
Q11   1   0.9046  0.1595  0.3917  11.00000  0.05    0.36
Q12   1   0.8135  0.3185  0.2629  11.00000  0.05    0.36
Q13   1   0.7045  0.6037  0.7166  11.00000  0.05    0.35
Q14   1   0.9179  0.1252  0.4253  11.00000  0.05    0.35
Q15   1   0.4919  0.2854  0.5376  11.00000  0.05    0.34
Q16   1   0.8308  0.8251  0.8969  11.00000  0.05    0.33
Q17   1   0.4966  0.1998  0.4540  11.00000  0.05    0.33
Q18   1   0.8633  0.1026  0.4897  11.00000  0.05    0.33
Q19   1   0.8347  0.6774  0.7558  11.00000  0.05    0.32
Q20   1   0.6950  0.6940  0.8463  11.00000  0.05    0.32
Q21   1   0.8266  0.1201  0.4802  11.00000  0.05    0.32
Q22   1   0.7800  0.6758  0.7848  11.00000  0.05    0.32
Q23   1   0.6766  0.2411  0.4317  11.00000  0.05    0.31
Q24   1   0.6853  0.2389  0.4098  11.00000  0.05    0.31
Q25   1   0.5214  0.3402  0.5714  11.00000  0.05    0.31
Q26   1   0.8140  0.7401  0.8154  11.00000  0.05    0.30
Q27   1   0.5997  0.3009  0.5164  11.00000  0.05    0.30
Q28   1   0.6399  0.4106  0.6010  11.00000  0.05    0.29
Q29   1   0.6677  0.7593  0.8844  11.00000  0.05    0.28
Q30   1   0.3824  0.1983  0.5003  11.00000  0.05    0.28
;
_shelx_res_checksum                32350
_shelx_hkl_file
;
  -3   0   0  317.48    3.86
   3   0   0  283.74    3.88
   4   0   0  240.53    4.32
  -4   0   0  202.49    4.06
  -5   0   0  770.54    4.71
   5   0   0  930.35    4.95
   6   0   0  262.37    5.54
  -6   0   0  300.00    5.23
  -7   0   0  351.13    4.31
   7   0   0  200.57    3.42
  -8   0   0  382.97    6.66
   8   0   0  409.70    7.21
   9   0   0    9.93    2.73
  -9   0   0   22.32    3.12
  10   0   0  106.12    5.78
 -10   0   0  111.11    5.52
  11   0   0    7.98    2.60
 -11   0   0   23.17    3.12
  12   0   0   27.82    2.86
 -12   0   0   51.61    5.30
 -13   0   0   68.98    3.72
  13   0   0   75.97    6.59
 -13   0   0   74.61    5.78
 -14   0   0  108.86    6.25
  14   0   0  105.03    7.08
 -15   0   0  221.76    7.39
  15   0   0  241.42    8.33
 -16   0   0   32.88    5.99
  16   0   0   37.04    6.52
 -16   0   0   32.74    3.86
  16   0   0    5.67    3.15
 -17   0   0   70.44    4.35
 -17   0   0   74.40    6.49
  17   0   0   90.41    7.18
  18   0   0   41.43    6.87
 -18   0   0   31.16    3.88
  18   0   0   16.08    2.93
  19   0   0    2.31    2.44
 -19   0   0   15.83    3.62
 -20   0   0   10.65    3.36
  20   0   0    0.26    2.36
 -20   0   0   10.06    5.58
  20   0   0    4.49    6.02
  21   0   0    0.83    2.23
 -21   0   0    1.51    3.18
  21   0   0   12.48    5.99
 -21   0   0   15.36    5.67
 -22   0   0    5.81    3.27
  22   0   0    0.97    1.99
  22   0   0   15.33    5.94
 -22   0   0   16.42    5.63
   1   1   0  332.19    3.12
  -2  -1   0  847.59    4.18
   2   1   0  836.93    4.22
   3   1   0   39.15    2.75
  -3  -1   0   55.07    2.75
  -4  -1   0    4.14    2.62
  -4   1   0   10.07    2.03
   4   1   0    9.84    2.62
  -5  -1   0  127.59    4.83
   5   1   0  127.02    5.07
  -5   1   0  148.59    3.33
   5  -1   0  156.20    3.45
  -6  -1   0  114.00    5.14
   6   1   0   86.45    5.22
   6  -1   0   89.04    3.75
  -6   1   0   79.22    3.47
  -7   1   0  115.34    4.10
   7  -1   0  115.49    4.28
   7   1   0  139.85    5.98
  -7  -1   0  119.85    5.60
   8   1   0  197.90    4.26
  -8  -1   0  227.78    4.42
   8  -1   0  206.32    3.76
  -8   1   0  215.10    4.02
   8  -1   0  213.73    5.41
  -8  -1   0  193.93    6.18
   8   1   0  241.14    6.88
  -8   1   0  228.41    5.07
  -9  -1   0    3.72    3.20
  -9   1   0   12.18    3.16
   9  -1   0    6.76    2.82
   9   1   0    3.31    3.09
  10   1   0   97.93    3.75
 -10   1   0  118.10    3.78
  10  -1   0  103.65    3.35
 -10  -1   0  121.38    4.00
 -10   1   0   94.37    4.74
 -10  -1   0  118.11    6.21
  10  -1   0  144.55    5.50
  10   1   0   92.89    6.46
  11  -1   0   17.76    2.69
  11   1   0   20.17    3.09
 -11   1   0   27.15    3.36
 -11  -1   0   23.67    3.18
 -12  -1   0   15.09    3.15
  12  -1   0   14.24    2.71
  12   1   0   13.54    2.96
 -13   1   0   91.02    4.02
  13   1   0   99.30    7.04
  13  -1   0  101.17    6.09
 -13   1   0   75.12    5.34
 -13  -1   0   95.78    6.37
 -14   1   0   26.41    5.15
 -14  -1   0   13.86    3.34
  14   1   0   13.11    3.13
  14  -1   0   15.16    2.81
  15  -1   0    8.37    2.90
  15   1   0   17.01    3.31
 -15  -1   0   19.16    3.42
  16  -1   0  124.39    7.18
  16   1   0  110.35    7.66
 -16   1   0  160.98    6.76
 -16  -1   0   92.15    6.67
 -17   1   0    6.70    3.81
  17  -1   0   10.33    2.80
  17   1   0    4.99    3.16
 -17  -1   0   22.47    3.77
  17   1   0   26.05    6.89
 -17   1   0   17.35    5.50
 -18   1   0   38.55    4.12
  18   1   0   22.09    6.70
  18  -1   0   38.26    6.25
 -18  -1   0   35.16    6.17
 -18   1   0   34.40    5.55
  18  -1   0   14.83    2.69
  18   1   0   21.13    3.19
 -18  -1   0   27.00    3.75
 -19  -1   0   22.34    5.95
  19  -1   0   30.32    6.13
 -19   1   0   13.26    5.26
  19   1   0   13.01    6.47
  19  -1   0    7.20    2.42
  19   1   0    6.44    2.70
 -19   1   0   16.38    3.72
 -19  -1   0    8.03    3.23
  20   1   0   19.52    6.45
 -20   1   0   24.32    5.53
 -20  -1   0   12.78    5.61
  20  -1   0   11.77    5.97
 -20  -1   0    8.90    3.13
  20  -1   0    2.07    2.10
  20   1   0    2.28    2.43
 -20   1   0    0.26    3.26
  21  -1   0   20.51    5.92
 -21  -1   0   18.10    5.72
  21   1   0   20.80    6.19
 -21   1   0   -0.95    5.15
  21   1   0    8.17    2.35
 -21   1   0    3.39    3.34
 -21  -1   0    4.69    3.08
  21  -1   0    6.72    2.05
  22  -1   0   13.34    5.82
 -22  -1   0   19.11    5.76
 -22   1   0    5.57    5.28
  22   1   0    9.96    5.95
 -22  -1   0   13.30    3.21
 -22   1   0   10.22    3.58
  22  -1   0   -0.66    1.82
  22   1   0    2.60    2.24
   0  -2   0 4534.21    9.71
   0   2   0 4464.03    8.86
   1   2   0   84.00    4.31
   1  -2   0   73.89    2.50
  -1  -2   0   92.29    4.15
   2   2   0   40.92    2.98
  -2  -2   0   41.57    2.74
   2  -2   0   37.81    0.58
  -2   2   0   27.44    0.61
   3   2   0  599.85    4.95
  -3  -2   0  556.48    4.68
  -4  -2   0  145.24    5.08
  -4   2   0  169.13    2.36
   4  -2   0  146.24    2.13
   5  -2   0   42.30    1.45
  -5   2   0   38.99    1.45
   5   2   0   38.11    2.85
  -5  -2   0   41.16    2.90
  -6   2   0   28.68    1.97
   6  -2   0   25.68    1.66
   6   2   0   35.19    2.95
  -6  -2   0   31.10    3.00
   7  -2   0   32.82    2.10
  -7   2   0   31.97    2.00
  -7  -2   0   29.38    3.23
   7   2   0   21.34    3.08
  -8  -2   0  147.94    4.22
   8   2   0  117.74    3.92
  -8  -2   0  150.79    6.53
  -8   2   0  139.53    3.99
   8   2   0  113.70    6.67
   8  -2   0  160.78    4.42
   8  -2   0  116.51    2.81
  -8   2   0  120.29    2.92
  -9  -2   0   98.44    3.93
  -9   2   0  114.35    4.18
   9  -2   0  147.77    4.61
  -9  -2   0  111.23    6.52
   9   2   0   80.59    6.65
   9  -2   0   87.11    2.86
  -9   2   0  104.88    3.08
  10  -2   0   21.09    2.55
  10   2   0   16.49    3.04
 -10   2   0   23.58    2.68
 -10  -2   0   19.76    3.30
 -11  -2   0   19.80    3.27
  11   2   0    8.00    2.95
 -12  -2   0   39.31    3.64
 -12  -2   0   58.24    6.42
  12  -2   0   56.43    4.98
 -12   2   0   55.36    4.49
 -12   2   0   42.06    3.44
  12  -2   0   31.24    2.79
  12   2   0   41.88    6.69
  12   2   0   23.85    3.21
 -13  -2   0   62.95    4.03
  13   2   0   54.01    3.61
  13  -2   0   50.32    3.07
  13   2   0   67.75    7.02
 -13  -2   0   74.99    6.76
  13  -2   0   76.92    5.45
 -13   2   0   61.05    3.70
 -14   2   0   84.31    5.41
 -14  -2   0   96.80    6.95
  14   2   0   78.26    7.29
  14  -2   0   90.39    5.82
  15  -2   0  159.72    6.64
  15   2   0  133.71    8.13
 -15  -2   0  174.09    7.92
 -15   2   0  158.43    6.30
 -15   2   0  178.30    5.14
  15   2   0  141.21    4.87
  15  -2   0  139.36    4.09
 -15  -2   0  186.07    5.61
  16  -2   0   -2.97    2.86
  16   2   0   15.35    3.49
 -17  -2   0   28.09    6.32
  17   2   0   21.50    6.71
 -17   2   0    7.86    3.70
  17  -2   0    9.66    2.75
  17   2   0    4.30    3.08
 -17  -2   0   15.24    3.67
  18   2   0   29.38    6.80
 -18  -2   0   20.46    6.29
  18  -2   0   21.66    5.73
  18   2   0    4.28    2.89
  18  -2   0    4.23    2.50
 -18   2   0   15.50    3.57
 -18  -2   0    0.64    3.36
  19  -2   0   14.00    5.70
  19   2   0   16.13    6.58
 -19  -2   0   12.35    5.94
  19   2   0   -2.82    2.55
  19  -2   0   -0.29    2.18
 -19  -2   0    6.41    3.24
 -19   2   0    5.19    3.47
 -20   2   0   18.73    5.15
  20  -2   0   20.87    5.75
 -20  -2   0    2.34    5.80
 -20   2   0   -6.02    3.27
 -20  -2   0    2.71    2.95
  20   2   0    3.05    2.49
  20  -2   0    3.54    2.11
 -21  -2   0   15.83    5.87
 -21   2   0   18.68    5.12
  21   2   0   -1.01    6.02
  21  -2   0   21.23    5.53
  21  -2   0    2.24    1.98
  21   2   0    1.80    2.26
 -21  -2   0   15.31    3.15
 -21   2   0    1.23    3.42
 -22   2   0   -4.83    4.75
 -22  -2   0    7.84    5.66
  22   2   0   13.09    6.03
  22  -2   0   -1.74    1.81
  22   2   0    5.19    2.26
 -22   2   0    7.64    3.49
 -22  -2   0   -0.40    2.76
   0   3   0   16.72    3.41
   0  -3   0   16.24    2.55
   1  -3   0  204.63    3.72
  -1  -3   0  154.16    4.75
  -2  -3   0  277.23    5.87
   2   3   0  192.00    5.60
   3   3   0  101.02    3.68
  -3  -3   0  114.85    5.26
  -4   3   0   13.84    0.64
   4  -3   0   12.55    0.50
  -5  -3   0  269.95    6.70
   5   3   0  195.32    6.52
   5   3   0  205.39    4.26
  -5   3   0  208.86    2.42
   5  -3   0  206.82    2.07
  -6  -3   0   15.05    2.90
   6   3   0    8.61    3.03
  -7  -3   0   29.92    3.28
  -7   3   0   35.10    2.71
  -7   3   0   22.13    2.36
   7  -3   0   25.90    1.61
   7   3   0   41.57    5.96
   7   3   0   33.89    3.23
  -8  -3   0  335.16    8.14
  -8  -3   0  324.24    5.39
  -9   3   0   23.92    2.24
   9  -3   0   23.96    1.75
   9   3   0   30.34    6.25
  -9  -3   0   21.38    3.33
   9   3   0   30.58    3.29
  10  -3   0   83.39    4.24
  10   3   0   83.28    6.86
 -10  -3   0  115.26    7.02
 -11  -3   0  126.67    7.17
 -11   3   0  144.99    4.59
  11   3   0   86.59    7.23
  11  -3   0  151.77    5.09
 -11   3   0  102.86    2.65
  11  -3   0   88.66    2.74
  11   3   0  108.25    4.13
 -11  -3   0  119.20    4.39
 -12   3   0  168.48    5.03
  12  -3   0  164.12    5.43
 -12  -3   0  120.14    7.42
 -12   3   0  143.18    3.46
  12   3   0  143.68    4.59
 -12  -3   0  183.38    5.13
 -13   3   0   24.31    4.23
 -13  -3   0   14.98    3.69
  13   3   0   10.50    3.32
 -13   3   0   24.02    3.10
  13  -3   0    8.11    2.54
  14   3   0   35.92    7.00
 -14   3   0   25.13    4.41
 -14   3   0   15.02    3.30
  14   3   0   19.76    3.52
 -14  -3   0   12.81    3.77
  14  -3   0   11.75    2.81
  15   3   0   32.16    7.05
 -15   3   0   28.65    4.57
 -15  -3   0    9.99    3.74
  15  -3   0    4.33    2.68
  15   3   0    8.32    3.27
 -15   3   0   11.71    3.32
  16   3   0   30.55    6.94
 -16  -3   0   12.01    3.60
  16  -3   0   13.86    2.65
 -16   3   0   10.36    3.17
  16   3   0   19.14    3.34
 -17   3   0   22.47    4.65
  17   3   0   19.19    6.75
 -17   3   0   11.92    3.27
  17   3   0    7.02    2.97
 -17  -3   0    9.38    3.43
  17  -3   0    2.44    2.42
 -18   3   0   18.98    4.66
  18  -3   0   22.07    5.37
  18   3   0   10.43    6.51
  18   3   0   -0.20    2.68
 -18  -3   0    2.31    3.20
  18  -3   0   -1.39    2.27
 -18   3   0   11.81    3.37
  19   3   0    6.73    6.47
 -19   3   0   10.79    4.64
  19  -3   0   23.95    5.49
 -19  -3   0   11.84    6.24
  19   3   0    1.63    2.55
 -19  -3   0   10.00    3.29
 -19   3   0    9.77    3.37
 -20   3   0   14.64    4.65
  20   3   0   27.04    6.71
 -20  -3   0   22.70    6.08
  20  -3   0   14.56    5.28
 -20   3   0    6.40    3.34
  20   3   0   -0.42    2.28
 -20  -3   0    6.55    3.16
  20  -3   0    6.36    2.15
  21   3   0    6.02    6.20
 -21  -3   0   17.05    5.89
  21  -3   0   13.28    5.20
 -21   3   0   12.22    4.68
 -21   3   0    5.79    3.34
  21  -3   0    4.78    2.07
 -21  -3   0    6.27    3.17
  21   3   0    4.47    2.44
   0   4   0 1280.74    7.24
   0  -4   0 1658.35    9.45
   1   4   0   22.47    4.56
  -1   4   0   10.89    3.02
   1  -4   0    7.26    2.46
   1   4   0   17.87    3.29
  -1  -4   0    8.29    3.16
   2   4   0  116.23    4.11
   2  -4   0  151.81    3.62
  -2  -4   0  105.60    5.45
   3  -4   0  251.92    3.02
  -3  -4   0  200.45    6.33
   4  -4   0   38.32    0.96
   4   4   0   53.19    5.69
   4   4   0   50.03    3.78
  -4  -4   0   36.87    3.09
  -5  -4   0   11.28    2.75
   5  -4   0    6.65    0.26
  -6  -4   0    6.64    2.61
   6   4   0   15.67    3.16
   7   4   0   42.09    6.22
  -7  -4   0   35.27    3.07
  -8   4   0   31.93    2.62
   8   4   0   20.49    3.14
   8   4   0   41.42    6.41
  -8  -4   0   35.05    3.18
   9   4   0   88.24    7.02
  -9  -4   0  127.76    7.12
   9  -4   0  132.21    3.32
  -9   4   0  115.00    3.38
  -9  -4   0   92.92    3.93
   9   4   0   97.19    3.86
  10  -4   0   35.02    1.58
  10   4   0   42.91    6.58
 -10  -4   0   47.75    6.73
  11   4   0    9.31    3.23
 -11  -4   0    3.65    3.20
 -11   4   0   14.14    3.29
  11   4   0   17.27    6.47
 -11   4   0    8.73    1.91
  11  -4   0    4.99    1.83
  12  -4   0   22.42    1.88
 -12   4   0   37.18    2.51
 -12   4   0   41.58    3.73
 -12  -4   0   34.56    6.49
  12   4   0   27.49    6.75
 -12  -4   0   37.03    3.74
  12   4   0   35.95    3.63
 -13   4   0   37.32    2.75
  13   4   0   15.41    3.44
 -13  -4   0    9.80    3.57
 -13   4   0   21.37    3.87
 -13  -4   0   42.00    6.60
  13   4   0   39.56    7.07
  13  -4   0   38.62    4.39
  13  -4   0    1.80    1.79
 -14   4   0   43.90    2.61
  14  -4   0   30.50    2.44
  14   4   0   28.47    7.02
 -14  -4   0   64.73    7.15
 -14  -4   0   57.06    4.14
  14   4   0   43.78    3.74
 -14   4   0   64.28    4.34
  14  -4   0   50.30    4.78
  15   4   0   -2.34    2.97
 -15  -4   0    3.32    3.32
  15  -4   0    4.90    2.13
 -15   4   0    5.48    2.33
  15   4   0   21.66    6.88
 -15   4   0   15.85    3.86
  16  -4   0    7.82    2.04
 -16  -4   0   10.57    3.29
  16   4   0   -1.98    2.74
 -16   4   0   10.67    2.65
 -16  -4   0   15.49    6.48
  16   4   0   24.56    6.70
  17  -4   0   22.77    4.98
 -17  -4   0   28.53    6.38
 -17   4   0    3.75    4.10
  17   4   0   14.68    6.74
 -17   4   0   18.49    2.95
  17   4   0    9.99    2.87
  17  -4   0    2.24    2.07
 -17  -4   0   12.99    3.48
 -18   4   0    9.01    4.16
  18   4   0  -12.10    6.15
 -18  -4   0    4.46    3.12
  18  -4   0    5.87    2.06
 -18   4   0    2.41    2.84
  18   4   0    4.94    2.60
  19  -4   0   11.66    4.87
  19   4   0   14.71    6.58
 -19  -4   0    5.60    5.96
 -19   4   0   -0.39    4.10
 -19  -4   0    1.70    3.03
  19   4   0   -1.71    2.40
 -19   4   0    1.77    2.94
  19  -4   0    1.70    1.92
 -20   4   0    9.26    4.29
  20   4   0    7.43    6.36
  20  -4   0    5.92    4.84
 -20  -4   0    6.91    6.08
 -20  -4   0    4.23    3.14
  20   4   0    1.89    2.38
 -20   4   0    6.83    3.02
  20  -4   0    1.36    1.89
   0   5   0   10.52    3.86
   0  -5   0   -0.85    2.72
  -1   5   0   99.35    3.54
   1   5   0   82.12    3.56
  -1  -5   0   76.62    3.53
  -1  -5   0  108.04    5.35
  -1   5   0   80.69    3.91
   1   5   0   85.23    4.84
   1  -5   0  120.23    4.53
  -2   5   0   15.96    2.98
  -2  -5   0    9.69    3.01
   2   5   0   10.16    3.39
   2  -5   0   12.47    2.38
  -3  -5   0   25.46    3.13
   3   5   0   35.83    5.19
  -3   5   0   32.35    2.36
  -4   5   0   35.28    1.50
  -4  -5   0   54.36    5.83
   4   5   0   42.01    5.54
  -4  -5   0   36.73    3.14
   5   5   0   22.82    3.56
  -5  -5   0   12.27    2.69
   6   5   0   33.34    6.11
  -6  -5   0   45.71    3.10
   7   5   0    5.22    3.28
  -7  -5   0   12.25    2.73
   7  -5   0    7.03    0.79
  -7   5   0   11.44    1.08
  -8   5   0   18.31    1.77
  -8  -5   0   10.35    2.85
   8   5   0   18.40    3.34
   9   5   0   11.72    3.28
   9   5   0   27.78    6.58
 -10   5   0   17.22    2.60
  10   5   0   21.40    6.66
  10  -5   0   18.63    2.58
  10   5   0   11.41    3.28
 -10  -5   0    5.61    3.17
  11  -5   0    0.88    2.33
 -11  -5   0   15.79    3.35
  11   5   0   18.21    3.36
 -12   5   0   13.71    2.54
  12   5   0   17.82    6.64
  12  -5   0   19.74    1.58
  12   5   0   17.03    3.34
 -13   5   0   23.75    2.25
  13   5   0    4.87    3.06
 -13  -5   0   13.57    3.27
  13  -5   0   10.26    1.54
 -13   5   0   24.66    3.45
  13  -5   0   26.02    3.75
 -13  -5   0   22.34    6.47
  13   5   0   21.58    6.85
 -14  -5   0   12.97    3.28
  14   5   0   10.16    3.04
  14  -5   0   11.61    1.68
 -14   5   0    9.55    1.99
 -14   5   0   11.92    3.41
  14  -5   0   20.22    3.90
 -14  -5   0   29.06    6.61
  14   5   0   21.94    6.91
 -15  -5   0    6.98    3.24
  15   5   0    7.16    2.87
  15  -5   0    5.39    1.43
 -15   5   0   13.02    2.28
 -15   5   0   17.63    3.58
  15   5   0    5.22    6.58
 -16  -5   0    4.15    3.04
  16   5   0   10.59    2.83
 -16   5   0   19.11    2.58
  16  -5   0    1.53    1.45
 -16  -5   0   15.95    6.49
 -16   5   0   19.41    3.81
  16   5   0   18.18    6.77
  17   5   0    7.99    2.72
 -17  -5   0   -3.79    2.84
 -17   5   0    5.17    2.29
  17  -5   0    2.42    1.62
  17   5   0   14.34    6.61
 -17   5   0    8.20    3.82
  17  -5   0    1.56    4.31
 -17  -5   0   10.08    6.06
  18  -5   0    0.96    1.61
 -18  -5   0    2.92    2.87
  18   5   0    4.63    2.52
 -18   5   0    3.03    2.17
  18   5   0   17.13    6.65
  18  -5   0    4.78    4.42
 -18   5   0    3.76    3.80
 -18  -5   0   16.30    5.98
  19   5   0    4.13    2.46
  19  -5   0    2.47    1.59
 -19  -5   0    2.89    2.91
 -19   5   0    5.71    3.85
 -19  -5   0  -15.59    5.68
  19  -5   0    1.18    4.33
  19   5   0    3.20    6.41
 -19   5   0   -1.01    2.18
   0   6   0  131.59    4.03
   0  -6   0  148.96    5.40
   0   6   0  158.67    5.21
   1   6   0   14.14    4.39
  -1   6   0   19.37    3.85
   1  -6   0   32.49    4.30
  -1   6   0   31.26    3.31
  -1  -6   0   23.26    3.16
   1   6   0   20.86    3.12
   1  -6   0   15.75    2.56
   2   6   0   23.32    4.72
   2   6   0   20.67    3.57
   2  -6   0    9.16    2.38
  -2  -6   0    8.45    2.96
   3   6   0   50.12    5.44
  -3   6   0   45.53    2.87
  -3  -6   0   30.23    3.29
   3   6   0   35.27    3.84
  -4  -6   0    8.41    3.07
   4   6   0   16.20    3.86
   4   6   0   11.84    5.38
  -4   6   0    6.87    1.90
   5   6   0   15.48    3.81
  -5  -6   0   13.85    2.93
   5   6   0   20.67    5.72
  -5   6   0    8.45    1.34
  -6  -6   0    0.58    2.78
   6   6   0   14.41    3.76
   6   6   0    9.95    5.51
  -6  -6   0   19.92    5.67
   6  -6   0   11.99    1.16
   7  -6   0    1.86    0.18
   7   6   0   13.64    5.85
  -7  -6   0    8.32    2.88
   8  -6   0   19.81    0.64
  -8   6   0   16.90    0.83
   8   6   0   16.49    6.61
  -8  -6   0   39.29    6.29
   8   6   0   29.82    3.88
  -8  -6   0   24.94    3.20
  -9   6   0   13.68    1.50
   9  -6   0   17.20    1.29
   9   6   0   29.28    6.84
  -9  -6   0   20.84    6.28
   9   6   0   18.54    3.60
  -9  -6   0   10.16    3.03
 -10   6   0   11.94    2.20
  10  -6   0   24.52    2.09
  10   6   0   23.06    6.78
 -10  -6   0   36.18    6.47
 -10  -6   0   14.60    3.06
  10   6   0   14.31    3.51
 -11   6   0   19.61    2.70
  11  -6   0   32.18    2.62
  11   6   0   28.21    6.82
 -11  -6   0   37.92    6.65
  11   6   0   13.94    3.27
 -11  -6   0   28.19    3.32
  12   6   0   10.70    6.58
 -12  -6   0    8.36    6.10
 -12  -6   0   12.70    3.12
  12   6   0    7.75    3.03
  13  -6   0    5.78    2.28
  13  -6   0   13.36    3.19
 -13  -6   0    4.33    6.12
 -13   6   0    6.29    2.83
 -13  -6   0   10.70    2.93
  13   6   0    6.48    2.90
 -14   6   0   -1.80    3.07
 -14   6   0   13.37    3.09
  14   6   0    1.58    6.25
 -14  -6   0   18.36    6.19
 -14  -6   0    0.93    2.71
  14   6   0    7.99    2.81
  14  -6   0    3.46    1.17
 -15   6   0   12.44    3.31
  15   6   0   17.09    6.42
  15  -6   0   10.65    3.67
  15   6   0    5.62    2.59
 -15  -6   0   -3.15    2.73
 -15   6   0    3.62    2.11
  15  -6   0    3.94    1.16
  16  -6   0    3.79    1.35
 -16   6   0   16.25    3.44
 -16  -6   0    5.34    6.32
  16  -6   0    8.59    3.90
  16   6   0   14.39    6.50
 -16  -6   0   -3.08    2.60
  16   6   0    5.52    2.61
 -16   6   0    8.21    2.15
 -17  -6   0    8.95    2.95
  17   6   0    8.79    2.59
 -17   6   0    3.66    1.99
  17  -6   0    0.36    1.24
 -17   6   0   15.02    3.52
  17  -6   0    7.50    3.92
 -17  -6   0    0.68    5.83
  17   6   0   11.86    6.49
   0  -7   0   -0.36    2.94
   0   7   0   11.17    3.47
   0   7   0   15.82    4.26
   1  -7   0   24.41    2.98
  -1  -7   0   21.10    3.35
  -1   7   0   21.48    3.95
   1   7   0    5.79    4.48
  -2  -7   0    9.10    3.15
   2  -7   0   14.85    2.38
   2   7   0   21.67    3.52
  -2  -7   0   27.28    4.87
   2   7   0   15.33    4.75
  -2   7   0   10.68    3.48
   2  -7   0   19.89    4.01
   3  -7   0    9.43    2.55
  -3  -7   0    8.11    3.03
   3   7   0   12.76    3.82
  -3   7   0    8.92    2.91
   3   7   0   10.01    4.96
   4   7   0   15.67    3.90
  -4  -7   0   11.24    3.05
  -4   7   0    3.06    2.24
   4   7   0    6.48    5.28
  -5  -7   0   11.92    3.00
   5   7   0   12.03    3.77
  -5   7   0   10.87    1.73
   5   7   0   19.68    5.59
  -6   7   0    2.13    1.35
   6   7   0   16.05    5.59
   6   7   0    6.59    3.82
  -6  -7   0    6.08    2.71
   7  -7   0    8.44    1.32
   7   7   0   15.07    5.70
  -7  -7   0   22.46    5.81
  -7  -7   0    5.92    2.75
   7   7   0   13.28    3.85
   8  -7   0   14.78    0.41
   8   7   0   34.26    6.34
  -9  -7   0    2.78    2.62
   9   7   0    4.12    3.52
   9  -7   0    2.59    0.34
   9   7   0   -9.66    5.68
  -9   7   0    0.52    0.42
  10  -7   0   21.85    1.12
 -10  -7   0   24.31    2.86
  10   7   0   25.37    3.65
  10   7   0   12.37    6.15
 -10   7   0   12.78    1.24
 -11   7   0    0.37    1.58
  11   7   0   -3.96    6.25
 -11  -7   0    2.13    2.52
 -12   7   0   10.77    2.26
  12   7   0   13.67    3.10
 -12  -7   0    9.41    2.72
 -12  -7   0   29.60    6.09
  12   7   0   23.32    6.53
  12  -7   0   26.55    2.48
 -13   7   0   -2.12    2.53
 -13  -7   0    7.45    2.68
  13   7   0    5.52    2.86
  13   7   0    2.48    6.32
  13  -7   0    6.72    2.75
 -13  -7   0    6.75    5.96
 -14   7   0    1.35    2.68
 -14  -7   0    2.01    2.49
  14   7   0    3.40    2.69
  14   7   0   19.03    6.56
  14  -7   0    5.40    2.95
 -14  -7   0    5.27    5.99
 -15   7   0    2.09    2.76
 -15  -7   0    6.86    2.61
  15   7   0    7.37    2.71
  15  -7   0    4.08    3.15
  15   7   0   13.75    6.43
 -15  -7   0    9.30    5.98
   0   8   0   23.64    3.37
   0  -8   0    8.34    2.58
   0  -8   0   19.36    4.38
  -1   8   0   12.73    3.18
  -1  -8   0    3.62    2.62
   1  -8   0    2.76    2.45
  -1   8   0    1.58    3.68
  -1  -8   0    3.24    4.39
   1  -8   0   10.54    3.96
   1   8   0   11.25    4.34
   2   8   0    8.06    3.03
  -2  -8   0    7.45    2.64
   2  -8   0    5.42    2.12
  -2   8   0   10.04    3.39
   2  -8   0   12.26    3.65
  -2  -8   0   13.01    4.66
   2   8   0   10.32    4.53
   3   8   0   -4.54    3.23
   3  -8   0    8.95    2.05
  -3  -8   0    3.10    2.61
  -3   8   0    9.58    2.91
  -3  -8   0   13.35    4.75
   3   8   0   11.39    4.67
   4   8   0    1.60    3.57
  -4  -8   0    1.09    2.48
   4  -8   0   14.45    3.33
  -4  -8   0   18.17    4.91
  -4   8   0    0.92    2.40
   4   8   0    4.64    4.76
  -5  -8   0    9.31    2.60
   5   8   0    4.52    3.59
   5  -8   0    7.63    2.98
  -5   8   0   -0.23    1.99
   5   8   0    7.02    5.20
   6   8   0   22.00    3.85
  -6  -8   0    3.34    2.42
   6   8   0   22.03    5.51
  -6  -8   0   21.13    5.45
  -6   8   0    8.76    1.62
   6  -8   0   22.49    2.73
  -7  -8   0   13.27    2.69
   7   8   0   20.55    3.90
  -7   8   0    9.98    1.36
  -7  -8   0   23.40    5.62
   7   8   0   17.41    5.54
  -8  -8   0    3.54    2.42
   8   8   0    3.50    3.58
  -8  -8   0    5.77    5.55
   8   8   0    9.05    5.35
  -9  -8   0    7.35    2.45
   9   8   0   13.29    3.66
   9   8   0    5.36    5.60
   9  -8   0    4.53    0.46
  -9  -8   0   14.78    5.93
  10   8   0    7.26    3.30
 -10  -8   0    4.54    2.30
 -10  -8   0    6.97    5.58
  10  -8   0    1.50    0.24
  10   8   0    6.11    5.66
 -11  -8   0    4.39    2.23
  11   8   0   -0.80    2.89
  11   8   0    3.96    5.66
 -11  -8   0    2.25    5.44
  11  -8   0    4.36    0.94
 -11   8   0    0.85    0.92
 -12  -8   0   11.00    5.62
  12   8   0   -1.18    5.50
  12  -8   0    2.62    1.52
 -12  -8   0    5.66    2.39
  12   8   0   -0.58    2.83
 -12   8   0    0.08    1.36
   0  -9   0    3.42    2.33
   0   9   0   -1.02    3.00
   0  -9   0   -0.98    3.86
   0   9   0    4.58    3.92
   1  -9   0   -1.58    2.21
  -1   9   0   10.17    3.14
  -1  -9   0    0.19    2.36
  -1  -9   0    7.10    4.19
   1   9   0    1.39    4.08
   1  -9   0    5.83    3.67
  -1   9   0    6.01    3.62
  -2  -9   0    9.12    2.45
   2   9   0    3.06    2.77
   2  -9   0   -0.47    2.05
   2  -9   0    6.30    3.53
   2   9   0    3.61    4.31
  -2   9   0    5.99    3.28
  -2  -9   0    3.28    4.31
   3   9   0    3.78    3.11
  -3  -9   0    3.25    2.36
   3  -9   0    2.62    1.78
   3  -9   0    5.95    3.24
  -3   9   0    9.70    2.98
  -3  -9   0    2.29    4.42
   3   9   0   11.63    4.45
  -4  -9   0   -0.41    2.30
   4  -9   0    0.53    1.85
   4   9   0    6.65    3.43
   4  -9   0    2.01    3.01
   4   9   0   10.00    4.69
  -4   9   0   -5.64    2.52
  -4  -9   0    7.92    4.57
  -5  -9   0   -0.91    2.19
   5   9   0   10.54    3.58
  -5  -9   0   11.45    4.90
   5   9   0    1.95    4.62
  -5   9   0   -1.31    2.09
   6   9   0   -3.02    3.26
  -6  -9   0    1.53    2.20
  -6   9   0   -0.78    1.67
   6   9   0    2.80    4.89
   6  -9   0    2.24    2.51
  -6  -9   0   12.19    5.28
  -7  -9   0    2.15    2.24
   7   9   0    6.99    3.60
  -7  -9   0    7.92    5.05
   7  -9   0    3.71    2.07
  -7   9   0   -3.11    1.48
   7   9   0    0.32    5.11
 -22   0   1    5.98    2.93
  22   0  -1    0.98    1.84
 -22   0   1   11.30    5.43
  22   0  -1    7.62    3.91
  21   0  -1   -1.95    1.89
 -21   0   1    5.41    2.78
 -21   0   1   -5.94    5.20
  21   0  -1    6.16    3.95
 -20   0   1   10.03    3.00
  20   0  -1    2.94    2.22
  20   0  -1   12.48    4.30
 -20   0   1    8.54    5.55
  19   0  -1    5.00    2.33
 -19   0   1   14.62    3.18
 -19   0   1   16.37    5.71
  19   0  -1    3.05    4.31
  18   0  -1   20.40    2.86
 -18   0   1   20.84    3.31
 -18   0   1   19.89    5.77
  18   0  -1    7.71    4.43
 -17   0   1   23.12    3.29
  17   0  -1   15.97    3.01
  17   0  -1    1.52    4.30
 -17   0   1   22.87    5.69
  16   0  -1   17.39    3.08
 -16   0   1   21.41    3.07
 -16   0   1   29.33    5.65
  16   0  -1   26.29    4.62
  15   0  -1    8.46    4.28
 -15   0   1   24.04    5.44
 -14   0   1   49.29    5.39
  14   0  -1   32.52    3.24
 -14   0   1   33.99    2.94
  14   0  -1   40.82    4.69
  13   0  -1   36.58    4.59
 -13   0   1   22.08    2.83
  13   0  -1   25.90    3.19
  12   0  -1   24.57    4.23
 -12   0   1   16.44    2.84
  12   0  -1   14.51    3.13
  11   0  -1   26.09    4.22
 -11   0   1   36.24    5.07
  11   0  -1   18.83    3.11
 -11   0   1   28.78    3.13
  10   0  -1    6.03    3.06
 -10   0   1   16.53    3.24
   9   0  -1   91.12    4.80
  -9   0   1  101.61    5.23
   8   0  -1   52.08    4.08
  -8   0   1   43.77    4.42
  -8   0   1   56.35    2.94
   8   0  -1   50.79    3.12
   7   0  -1   15.75    2.87
  -7   0   1   12.43    2.75
   6   0  -1   30.63    3.27
  -6   0   1   39.74    3.55
  -5   0   1   18.00    3.32
   5   0  -1   18.99    3.07
   4   0  -1   27.09    3.12
  -4   0   1   44.00    3.40
  -3   0   1   14.32    3.28
   3   0  -1   17.11    3.22
   3   0   1   -4.48    2.73
  -3   0  -1    1.18    2.79
   4   0   1   14.19    3.08
  -4   0  -1   18.56    3.15
  -5   0  -1   34.01    2.77
   5   0   1   25.20    2.71
   6   0   1  138.56    3.62
  -6   0  -1  122.74    3.44
   7   0   1  110.82    3.65
  -7   0  -1  122.63    3.71
  -7   0  -1   88.53    3.79
   7   0   1   90.68    3.81
  -8   0  -1  137.34    4.32
   8   0   1  117.25    3.90
  -9   0  -1   16.55    3.88
   9   0   1   16.67    3.43
   9   0   1   16.29    3.59
  10   0   1   11.73    3.53
 -10   0  -1   12.86    4.12
 -11   0  -1   19.15    4.49
  11   0   1   14.58    3.77
 -11   0  -1   17.10    3.66
  11   0   1   20.81    3.39
  12   0   1    7.59    4.07
 -12   0  -1   19.99    4.90
 -12   0  -1    4.58    3.67
  12   0   1   10.84    3.45
 -13   0  -1   10.53    5.21
  13   0   1   14.05    4.55
  13   0   1   18.03    3.63
 -14   0  -1   16.90    5.68
  14   0   1    9.36    4.76
 -14   0  -1   12.61    4.46
  14   0   1    6.26    3.68
 -15   0  -1   29.15    6.23
  15   0   1   16.59    4.90
  15   0   1    6.03    3.89
 -16   0  -1   31.51    6.82
  16   0   1   22.71    5.22
  16   0   1   18.62    4.17
 -16   0  -1   33.70    5.30
  17   0   1   25.71    5.45
 -17   0  -1   26.93    6.76
  17   0   1   -5.61    3.64
  18   0   1    5.88    5.07
 -18   0  -1   26.91    6.62
 -18   0  -1   19.53    4.52
  18   0   1   -1.00    3.14
 -19   0  -1   21.48    6.66
  19   0   1   12.10    5.00
 -19   0  -1   23.88    4.47
  19   0   1    7.25    3.05
 -20   0  -1   18.49    6.65
  20   0   1   -5.75    4.65
  20   0   1    2.63    2.75
 -20   0  -1   -0.11    3.86
  21   0   1    6.92    4.72
 -21   0  -1    1.12    6.30
 -21   0  -1   -2.03    3.54
  21   0   1    3.40    2.57
  22   0   1    3.52    4.85
 -22   0  -1    1.20    6.60
  22   0   1    0.23    2.32
 -22   0  -1    1.06    3.73
 -22   1   1   11.01    5.31
  22  -1  -1    7.07    3.88
  22   1  -1    6.51    4.03
 -22  -1   1   11.65    5.63
  22  -1  -1    7.07    1.99
 -22   1   1    6.51    2.90
  22   1  -1   -0.45    2.04
 -22  -1   1   16.01    3.01
  21  -1  -1    0.36    3.70
  21   1  -1    1.77    4.03
 -21   1   1    3.34    5.13
 -21  -1   1    9.47    5.55
  21   1  -1   -1.69    2.11
 -21   1   1   11.84    2.88
  21  -1  -1    6.63    1.98
 -21  -1   1    6.43    2.93
  20   1  -1   -4.29    4.05
 -20   1   1    4.13    5.26
  20  -1  -1   -2.56    3.87
 -20  -1   1    2.01    5.32
  20  -1  -1    1.20    1.89
  20   1  -1    2.38    2.33
 -20  -1   1    5.59    2.95
 -19   1   1    3.92    5.38
  19  -1  -1    7.79    4.23
 -19  -1   1   12.68    5.69
  19   1  -1   16.56    4.42
 -19   1   1   15.33    3.04
  19  -1  -1    5.73    2.13
 -19  -1   1   13.69    3.23
  19   1  -1    8.56    2.66
  18   1  -1   31.65    3.25
  18  -1  -1   41.66    4.74
 -18   1   1   38.57    5.87
  18  -1  -1   25.40    2.56
 -18  -1   1   37.58    3.53
  17   1  -1   14.08    4.69
 -17   1   1   33.65    5.59
 -17  -1   1   31.73    5.85
  17  -1  -1   14.23    2.62
 -17   1   1   22.61    3.17
  17   1  -1    4.85    3.17
 -17  -1   1   16.84    3.31
  16  -1  -1   20.94    4.41
 -16   1   1   29.83    5.31
  16   1  -1    8.63    4.59
 -16  -1   1   18.60    5.69
 -16  -1   1   19.78    3.27
 -16   1   1   16.34    3.08
  16  -1  -1   22.22    2.74
 -15  -1   1   49.63    6.04
  15   1  -1   52.04    3.84
  15  -1  -1   33.94    2.79
 -15   1   1   43.00    3.08
 -15  -1   1   43.85    3.33
  15  -1  -1   41.93    4.67
  15   1  -1   47.56    5.04
  14  -1  -1   94.65    5.08
 -14  -1   1  103.30    6.44
 -14   1   1  131.21    6.27
 -14   1   1   80.05    3.11
 -14  -1   1   80.97    3.71
  14   1  -1   74.97    3.98
  13   1  -1   28.76    3.57
  13  -1  -1   26.71    4.36
 -13   1   1   29.17    2.54
  13  -1  -1   29.80    2.78
 -12  -1   1  213.15    6.80
  12   1  -1  202.80    5.05
 -12  -1   1  217.80    4.99
 -12   1   1  259.55    7.05
  12  -1  -1  235.26    5.96
 -11   1   1  295.01    6.85
 -11  -1   1  241.39    6.88
  11  -1  -1  244.58    5.99
  10   1  -1  109.11    5.09
  10  -1  -1  137.86    5.07
 -10   1   1  151.51    5.47
 -10  -1   1  162.31    6.18
 -10   1   1  117.07    3.42
 -10  -1   1  110.38    4.24
   9   1  -1   17.37    4.58
  -9  -1   1    8.71    3.49
  -9   1   1   17.64    2.84
   9  -1  -1   14.78    2.37
   9   1  -1    8.86    3.02
  -8   1   1  726.81    7.29
  -8  -1   1  682.29    8.86
   8  -1  -1  722.40    7.09
  -7  -1   1  784.59    8.41
  -7   1   1  744.12    6.84
  -6   1   1  537.63    5.65
   6  -1  -1  543.83    5.63
  -5   1   1  248.80    4.63
   5  -1  -1  240.21    4.55
  -5  -1   1  240.32    4.70
   4  -1  -1   29.50    2.86
  -4   1   1   30.73    3.00
   4   1  -1   36.67    3.21
   3  -1  -1   15.41    2.22
  -3   1   1    9.47    2.25
   3   1  -1   14.05    2.99
  -2  -1   1  174.67    3.55
   2   1  -1  141.67    3.42
  -1   1   1  663.61    3.62
   1  -1  -1  678.25    3.65
   0   1   1   31.48    2.34
   0   1  -1   34.12    1.76
  -1  -1  -1   68.93    3.10
   1   1   1   61.21    3.11
   2   1   1  116.10    3.34
  -2  -1  -1  112.97    3.29
   3   1   1  271.67    4.16
  -3  -1  -1  261.14    4.10
  -4   1  -1   15.73    2.50
   4  -1   1   22.42    2.49
   4  -1   1   23.28    2.60
  -4   1  -1   10.75    2.69
   4   1   1   17.77    3.66
  -4  -1  -1   11.34    3.58
   5  -1   1    3.10    2.32
  -5   1  -1   12.11    2.47
  -5  -1  -1   19.16    3.67
   5   1   1   17.41    3.49
  -6  -1  -1  162.76    3.92
   6   1   1  146.35    3.82
   7   1   1  166.88    4.23
  -7  -1  -1  206.48    4.62
  -8   1  -1   26.04    3.07
   8  -1   1   26.67    2.82
   8   1   1   26.02    3.70
   8   1   1   25.28    4.07
   9   1   1  125.75    4.73
  -9  -1  -1  154.06    5.30
  10   1   1  121.48    4.97
 -10  -1  -1  177.96    5.94
  11  -1   1   22.94    3.52
 -11   1  -1   26.09    4.26
 -11   1  -1   24.04    3.29
 -11  -1  -1   26.69    4.05
  11  -1   1   21.59    3.08
  11   1   1   17.51    3.80
  12  -1   1   12.61    3.15
 -12   1  -1   11.53    3.48
  12   1   1    5.20    3.49
 -12  -1  -1   25.64    4.14
 -12   1  -1   15.82    4.56
  12   1   1   11.93    4.50
  12  -1   1   15.18    3.79
 -12  -1  -1   27.75    5.37
  13  -1   1   29.57    3.34
 -13   1  -1   22.94    4.97
  13   1   1   33.81    5.02
  13  -1   1   23.11    4.19
 -13  -1  -1   14.97    4.23
  13   1   1    8.77    3.74
 -13   1  -1   26.72    3.86
  14  -1   1   33.68    3.53
 -14   1  -1   49.90    4.44
  14  -1   1   54.58    4.96
 -14   1  -1   52.42    5.75
  14   1   1   50.88    5.40
 -14  -1  -1   55.84    6.46
 -14  -1  -1   33.92    4.65
  14   1   1   29.72    4.08
  15   1   1   30.29    5.35
 -15  -1  -1   33.25    6.53
 -15   1  -1   18.77    4.16
  15  -1   1   15.85    3.57
  15   1   1   20.88    4.15
 -15  -1  -1   11.09    4.63
  16  -1   1    3.19    4.80
 -16   1  -1   30.07    6.04
 -16  -1  -1   26.53    6.63
  16   1   1   21.62    5.44
 -16   1  -1   25.62    4.33
  16  -1   1   16.01    3.65
 -16  -1  -1   25.95    4.93
  16   1   1   13.48    3.95
 -17   1  -1   17.76    6.22
  17   1   1   23.21    5.40
  17  -1   1   20.10    5.06
  17   1   1    8.18    3.57
  17  -1   1   10.87    3.44
 -17   1  -1   23.07    4.19
 -17  -1  -1   11.04    4.44
 -18   1  -1    9.54    6.16
  18  -1   1    0.70    4.74
  18   1   1    1.23    5.15
 -18  -1  -1    6.08    6.67
 -18   1  -1    9.54    3.80
  18  -1   1    8.50    3.10
 -18  -1  -1   -4.04    4.24
  18   1   1    2.08    3.34
  19  -1   1    7.15    4.76
 -19  -1  -1    3.09    6.55
 -19   1  -1    5.85    6.19
  19   1   1   15.67    5.20
  19   1   1   10.04    2.99
 -19   1  -1   13.37    3.75
  19  -1   1    6.05    2.85
 -19  -1  -1    7.13    4.13
 -20   1  -1    0.17    6.07
 -20  -1  -1    9.72    6.76
  20   1   1   -2.19    4.98
 -20   1  -1    4.10    3.66
  20  -1   1    1.53    2.48
 -20  -1  -1    0.93    3.85
  20   1   1   -0.11    2.60
  21  -1   1   -2.97    4.54
  21   1   1   -9.29    4.64
 -21   1  -1   -4.45    6.06
 -21  -1  -1    0.98    6.53
 -21  -1  -1   -0.49    3.65
  21   1   1   -2.64    2.41
 -21   1  -1    6.96    3.81
 -22  -1  -1   11.73    6.96
  22  -1   1    0.30    4.54
  22   1   1   13.25    5.06
 -22   1  -1   10.88    6.51
 -22   1  -1    5.29    3.73
 -22  -1  -1   -1.01    3.71
  22  -1   1   -4.06    2.25
  22   1   1    1.65    2.46
 -22  -2   1    5.90    5.38
  22   2  -1   -1.05    3.85
  22  -2  -1    5.01    3.69
 -22   2   1   11.19    5.15
  22   2  -1    5.41    2.21
  22  -2  -1    2.15    1.77
 -22   2   1    7.86    2.84
 -22  -2   1    2.58    2.72
  21   2  -1   -3.31    3.87
  21  -2  -1    0.80    3.60
 -21   2   1   14.61    5.06
 -21  -2   1    6.59    5.49
  21  -2  -1    1.15    1.77
 -21  -2   1    0.19    2.74
  21   2  -1    8.63    2.46
 -21   2   1   11.62    2.90
  20   2  -1   10.21    4.27
  20  -2  -1    4.92    3.80
 -20   2   1   18.20    5.15
 -20  -2   1   12.03    5.65
 -20   2   1   11.53    2.77
  20   2  -1    5.44    2.57
  20  -2  -1    1.25    1.80
 -20  -2   1    3.75    2.80
 -19   2   1    4.58    5.00
 -19  -2   1    9.74    5.46
  19   2  -1    1.19    4.19
 -19  -2   1    4.30    2.83
  19  -2  -1    2.10    1.91
  19   2  -1    0.09    2.64
 -19   2   1    1.62    2.67
  18  -2  -1   -2.27    3.86
 -18  -2   1   -1.23    5.48
  18   2  -1    2.92    4.29
  18   2  -1    5.90    3.04
  18  -2  -1    6.03    2.11
 -18  -2   1   10.65    2.89
 -17   2   1   12.36    5.14
 -17  -2   1   17.86    5.89
  17   2  -1    7.19    4.68
  17  -2  -1    8.59    4.24
  17   2  -1   20.16    3.62
  17  -2  -1    9.20    2.22
 -17  -2   1   10.72    3.10
 -16   2   1  180.88    4.28
 -16  -2   1  252.36    8.31
  15   2  -1   10.36    4.88
 -15  -2   1   44.43    6.23
  14   2  -1   37.98    4.12
  14   2  -1   30.72    4.99
  14  -2  -1   28.16    2.34
 -14  -2   1   35.92    3.73
  13  -2  -1   37.02    4.22
 -13  -2   1   30.36    5.65
  13   2  -1   23.53    4.73
  13   2  -1   37.46    4.15
 -13   2   1   24.51    2.50
  13  -2  -1   26.69    2.27
 -13  -2   1   35.90    3.73
  12  -2  -1   48.16    4.37
 -12  -2   1   29.45    3.84
 -12  -2   1   60.59    5.83
  12   2  -1   53.26    5.02
 -12   2   1   44.89    4.72
  12  -2  -1   34.03    2.46
 -12   2   1   48.72    2.44
  12   2  -1   44.62    4.07
 -11  -2   1  213.57    6.87
 -11  -2   1  187.65    5.09
  11  -2  -1  185.73    5.16
 -11   2   1  226.46    5.75
  10   2  -1   57.82    5.07
  10   2  -1   38.72    3.74
 -10  -2   1   41.06    3.90
 -10   2   1   50.43    2.43
  10  -2  -1   45.62    2.48
  10  -2  -1   49.02    4.01
  -9   2   1  158.07    3.05
  -9  -2   1  158.02    4.74
  -9   2   1  180.96    5.00
  -9  -2   1  206.18    6.65
   9  -2  -1  160.12    4.53
   8  -2  -1  668.31    6.15
  -8   2   1  667.40    6.69
  -7  -2   1   78.60    4.16
   7   2  -1   72.36    4.28
  -7   2   1   76.85    3.90
   7   2  -1   75.23    5.17
  -7  -2   1  104.74    5.89
   7  -2  -1   71.46    3.53
   6  -2  -1  917.55    6.19
  -6   2   1  858.94    6.13
  -5  -2   1  175.27    4.95
   5   2  -1  120.86    4.44
   4  -2  -1  198.70    2.74
  -4   2   1  154.72    2.44
   3  -2  -1   39.29    1.72
  -3   2   1   26.64    1.66
  -2  -2   1   11.73    3.09
   2   2  -1   10.33    3.10
  -2   2   1    3.81    2.15
   2  -2  -1   -1.40    2.17
  -1   2   1 2138.92    6.43
   1  -2  -1 2101.56    6.44
  -1  -2   1 2100.37    8.64
   0   2   1  186.08    4.04
   0  -2  -1  181.71    4.00
   0  -2   1  206.81    3.29
   0   2  -1  198.38    3.26
  -1  -2  -1 2052.72    8.09
  -1  -2  -1 2069.01    8.94
   1  -2   1 2052.16    5.31
  -2  -2  -1 8087.00   17.49
   2   2   1 8937.77   18.53
  -3  -2  -1  487.78    5.34
   3   2   1  449.52    5.24
  -3  -2  -1  432.05    6.48
  -4  -2  -1 1675.81    8.47
  -4  -2  -1 1621.08    9.83
   5  -2   1  437.46    4.05
   5   2   1  368.50    6.04
  -6  -2  -1   21.20    4.18
   6   2   1   26.24    4.05
   6   2   1   15.76    3.26
   6  -2   1   14.29    2.67
  -6   2  -1   10.81    3.04
   7   2   1   57.99    3.83
   7   2   1   66.71    4.51
  -7  -2  -1   57.87    4.42
  -7   2  -1   61.84    2.95
   7  -2   1   51.97    2.74
  -8   2  -1   14.85    2.59
   8  -2   1    9.41    2.33
   8  -2   1   24.88    2.75
  -8  -2  -1   16.27    4.28
  -8   2  -1   22.67    2.66
   8   2   1   21.85    3.91
  -8  -2  -1   21.50    4.23
   8   2   1   14.65    4.14
   9  -2   1    9.04    2.77
  -9   2  -1    9.66    2.80
  -9   2  -1   19.68    2.80
  -9  -2  -1   24.49    4.67
   9   2   1   14.16    4.10
  -9  -2  -1    6.95    4.14
   9   2   1    7.74    3.78
  10  -2   1   19.60    2.57
  10   2   1   12.18    3.71
 -10  -2  -1    6.66    4.10
 -10  -2  -1   11.34    4.84
  10  -2   1   17.75    2.83
 -10   2  -1    7.24    3.13
  10   2   1   17.02    4.35
 -11   2  -1   10.99    2.85
  11  -2   1    9.00    2.34
 -11  -2  -1    6.16    5.17
 -11   2  -1   14.32    3.67
  11   2   1   12.96    4.60
  11  -2   1   11.94    3.13
  11   2   1    2.55    3.56
 -11  -2  -1    8.84    4.06
  12   2   1   34.82    3.90
  12  -2   1   22.80    2.49
 -12   2  -1   36.05    3.07
  12   2   1   42.68    5.12
 -12  -2  -1   45.74    4.55
 -13   2  -1   16.15    3.06
  13   2   1   18.42    5.05
 -13  -2  -1    6.29    5.71
  13  -2   1   13.07    2.76
 -13  -2  -1   14.02    4.23
  13   2   1   11.74    3.66
 -14   2  -1  129.42    6.12
  14  -2   1  107.59    4.88
  14   2   1   89.08    6.09
 -14  -2  -1  125.61    7.50
 -14  -2  -1   86.45    5.48
 -15  -2  -1   12.49    6.46
  15  -2   1    4.75    4.30
 -15   2  -1   16.41    5.27
  15   2   1    2.36    5.23
  15  -2   1   11.86    3.33
  15   2   1   10.04    4.01
 -15  -2  -1   19.49    5.10
  16  -2   1   14.02    3.18
 -16   2  -1   23.51    3.92
  16   2   1   29.00    3.89
 -16  -2  -1   27.71    4.69
  16   2   1   34.06    5.63
  16  -2   1   35.89    4.67
  17   2   1    6.30    3.29
  17  -2   1    8.59    2.86
 -17   2  -1   20.68    3.89
 -17  -2  -1   13.52    4.34
 -17   2  -1    7.47    5.57
  17  -2   1    7.23    4.50
  17   2   1   22.22    5.49
 -17  -2  -1   30.00    6.91
  18   2   1   11.43    3.20
  18  -2   1   11.25    2.70
 -18   2  -1    6.74    3.76
 -18  -2  -1   16.85    4.31
 -18  -2  -1   19.61    6.93
  18   2   1   18.96    5.50
  18  -2   1   23.22    4.75
 -19   2  -1   17.46    3.79
  19   2   1   -2.58    2.60
 -19  -2  -1   10.74    4.03
  19  -2   1    9.01    2.64
 -19  -2  -1   28.85    7.17
  19  -2   1   14.10    4.59
 -19   2  -1    2.03    5.78
  19   2   1   12.33    5.30
  20   2   1    2.59    2.49
 -20   2  -1   -2.13    3.45
  20  -2   1    1.43    2.31
 -20  -2  -1    3.32    3.90
  20   2   1   -1.00    5.03
 -20  -2  -1  -10.00    6.46
 -20   2  -1   10.78    5.83
  20  -2   1   10.35    4.48
  21   2   1    2.06    2.36
 -21   2  -1    4.86    3.45
  21  -2   1    7.27    2.47
 -21  -2  -1    4.09    3.67
  21  -2   1   -4.28    4.18
  21   2   1    6.40    5.15
 -21  -2  -1   16.02    6.84
 -21   2  -1    8.94    5.92
  21   3  -1    6.12    2.55
 -21  -3   1    4.96    2.75
 -21   3   1    4.89    2.59
  21  -3  -1    0.24    1.60
 -21   3   1    7.53    4.70
  21   3  -1    7.01    4.11
  21  -3  -1   -3.11    3.46
 -21  -3   1    7.13    5.40
  20   3  -1    1.85    2.61
  20  -3  -1    5.39    1.71
 -20  -3   1    8.15    2.80
 -20   3   1   -3.95    4.68
  20   3  -1    3.07    4.05
  20  -3  -1   -0.20    3.47
 -20  -3   1    9.88    5.60
  19   3  -1    5.84    2.88
  19  -3  -1    4.15    1.79
 -19   3   1   10.00    2.47
 -19  -3   1   10.03    2.87
 -19   3   1   -0.11    4.76
  19   3  -1   10.67    4.38
  19  -3  -1    7.07    3.66
 -19  -3   1   10.79    5.59
 -18  -3   1   20.53    3.16
 -18   3   1   15.07    2.56
  18  -3  -1    8.36    1.87
  18   3  -1    7.57    3.17
 -18   3   1   23.35    5.07
 -18  -3   1    7.14    5.60
  18   3  -1   17.40    4.55
  17   3  -1   19.05    3.64
  17  -3  -1   13.08    1.99
 -17   3   1   19.30    2.66
 -17  -3   1   25.58    3.34
  17  -3  -1   24.62    4.03
  17   3  -1   23.80    4.71
 -17   3   1   35.06    5.24
  16  -3  -1    8.20    2.03
 -16  -3   1   11.11    3.43
  16   3  -1    8.97    3.71
 -16   3   1    6.63    4.94
 -16  -3   1    6.08    5.72
  16   3  -1    3.20    4.48
  16  -3  -1   11.91    3.93
 -15   3   1   18.30    2.74
  15  -3  -1    9.16    2.00
  15   3  -1   11.17    4.08
 -15  -3   1    9.58    3.52
 -15  -3   1   25.38    5.85
  15   3  -1    7.44    4.73
  15  -3  -1   15.87    3.84
 -14  -3   1   30.14    3.91
  14   3  -1   18.67    4.23
  14  -3  -1   11.99    1.88
 -14  -3   1   28.07    5.86
  14   3  -1   11.39    4.84
 -14   3   1   28.32    4.81
 -13  -3   1    6.83    3.65
  13   3  -1    8.27    3.98
  13  -3  -1    9.27    1.73
  13  -3  -1   14.08    3.89
  13   3  -1   14.27    4.79
 -13  -3   1    9.78    5.59
  12  -3  -1   77.52    4.09
 -12   3   1   64.53    4.47
  12   3  -1   87.38    4.80
 -12  -3   1   65.64    5.98
 -12   3   1   78.51    2.38
 -12  -3   1   90.81    4.66
  11   3  -1    6.13    4.54
 -11  -3   1   24.90    5.41
 -10  -3   1  101.08    5.93
  10  -3  -1  110.46    3.73
 -10   3   1  119.01    4.10
 -10  -3   1   96.30    4.53
  -9  -3   1   22.79    3.70
   9   3  -1   17.79    3.35
   9   3  -1   24.19    4.65
  -8  -3   1  266.12    6.75
   8   3  -1  245.17    5.42
  -8  -3   1  248.41    5.04
  -8   3   1  275.72    5.16
   7  -3  -1   27.03    2.68
  -7   3   1   24.09    3.35
   7   3  -1   21.94    4.33
  -6  -3   1  114.70    5.32
   6   3  -1   92.03    4.87
   6   3  -1  103.23    4.54
  -6  -3   1   93.91    4.14
  -5  -3   1  156.16    5.32
  -5  -3   1   99.75    4.21
  -4   3   1   37.35    2.06
   4  -3  -1   27.44    1.71
   3   3  -1   60.46    3.71
  -3  -3   1   70.91    3.74
  -3   3   1   87.98    2.61
   3  -3  -1   72.51    2.41
  -2  -3   1   91.22    3.46
   2  -3  -1   92.66    2.95
  -2   3   1  102.68    2.99
   1  -3  -1  218.00    3.75
  -1   3   1  242.47    3.86
   0   3  -1   21.77    2.69
   0  -3  -1   37.83    3.10
   0   3   1   37.11    3.29
   0  -3   1   35.92    3.06
   1   3   1  265.68    4.37
  -1  -3  -1  219.24    3.74
  -2   3  -1  176.14    2.61
   2  -3   1  198.59    2.52
   2   3   1  184.18    3.94
  -2  -3  -1  172.76    3.88
  -2  -3  -1  194.46    4.57
   2   3   1  184.60    4.37
  -3  -3  -1  251.55    4.34
   3   3   1  208.27    4.30
   4   3   1  197.44    4.40
  -4  -3  -1  238.49    4.51
  -5  -3  -1  261.54    5.03
  -5  -3  -1  217.79    5.26
   6   3   1  104.36    4.25
  -6  -3  -1  140.55    4.75
   7  -3   1   13.62    6.57
   7  -3   1   20.25    2.56
  -7   3  -1   16.64    2.34
  -8  -3  -1  131.46    5.61
   8   3   1   87.62    4.86
   8  -3   1  110.21    2.91
  -8  -3  -1  107.86    4.75
   8   3   1   86.44    4.27
   9  -3   1   42.12    2.69
  -9   3  -1   36.37    2.61
   9   3   1   54.66    4.87
  -9   3  -1   40.08    2.81
   9  -3   1   34.39    2.47
   9   3   1   47.18    3.91
  -9  -3  -1   49.72    4.20
  10  -3   1   21.09    2.58
 -10   3  -1   23.72    2.78
  10   3   1   18.09    3.51
  10  -3   1   19.02    2.21
 -10   3  -1   13.67    2.65
  11   3   1   18.91    3.76
 -11   3  -1   21.46    2.75
 -11   3  -1   21.81    3.26
  11   3   1   25.70    4.92
  11  -3   1   18.16    2.77
  11  -3   1    9.91    2.36
  12   3   1   51.43    5.63
  12  -3   1   41.42    3.23
 -12   3  -1   43.46    3.23
  12  -3   1   25.46    2.82
  12   3   1   35.24    3.91
  13   3   1    9.11    3.56
  13  -3   1   13.75    2.54
  14  -3   1   15.47    2.53
 -14   3  -1   28.49    3.43
  14   3   1   31.05    5.67
  14   3   1   19.74    3.80
 -15   3  -1    6.37    3.03
  15  -3   1    2.72    2.34
 -15  -3  -1    6.11    4.11
  15   3   1    2.14    3.44
 -15  -3  -1   25.20    6.70
  15   3   1    8.40    5.36
 -15   3  -1   14.24    4.86
  15  -3   1   15.85    3.79
 -16   3  -1   22.08    3.02
  16  -3   1    9.89    2.54
 -16  -3  -1   30.10    4.40
  16   3   1   16.55    3.46
  16  -3   1   26.29    4.06
 -17   3  -1    4.30    2.79
  17   3   1    5.50    2.97
  17  -3   1    4.76    2.43
 -17  -3  -1   14.46    4.05
 -17   3  -1   19.15    5.37
 -17  -3  -1   14.53    6.57
  17   3   1   17.05    5.35
  18  -3   1    3.84    2.36
  18   3   1    2.16    2.70
 -18  -3  -1    2.59    3.66
 -18   3  -1    8.89    2.81
 -18   3  -1    5.74    5.32
  18   3   1   -2.70    4.97
 -18  -3  -1   -4.70    6.47
 -19  -3  -1    0.49    3.60
  19  -3   1   -0.63    2.13
  19   3   1    2.36    2.55
 -19   3  -1   10.08    2.99
 -19  -3  -1  -16.76    6.46
  19   3   1    5.75    5.30
  19  -3   1    7.91    4.08
 -19   3  -1   16.98    5.41
 -20   3  -1    5.22    3.11
  20   3   1    2.69    2.46
  20  -3   1    3.86    2.07
 -20  -3  -1   13.58    3.92
 -20   3  -1   11.18    5.62
 -20  -3  -1   11.92    6.94
  20   3   1    7.04    5.26
  20  -3   1    8.61    4.08
  21  -3   1   -0.76    1.93
 -21   3  -1    1.56    3.26
  21   3   1   -3.54    2.21
 -21  -3  -1    9.21    3.71
  21  -3   1    6.54    4.24
  21   3   1   20.12    5.54
 -21  -3  -1   20.14    6.97
 -21   3  -1   13.07    5.88
  20  -4  -1    5.66    1.64
 -20   4   1   17.17    2.74
  20   4  -1    5.57    2.75
 -20  -4   1   14.22    2.80
 -20   4   1   14.95    4.71
  20  -4  -1   19.00    3.53
  20   4  -1   18.58    4.60
  19  -4  -1    2.90    1.49
 -19  -4   1    1.56    2.62
  19   4  -1    1.91    2.87
 -19   4   1   12.05    2.68
  19   4  -1    3.87    4.24
 -19  -4   1   -3.72    5.20
  19  -4  -1   12.84    3.45
 -19   4   1   14.56    4.66
 -18  -4   1    2.87    2.86
  18   4  -1   -2.00    2.96
  18  -4  -1    0.54    1.54
 -18   4   1    4.00    4.64
 -18  -4   1   13.03    5.53
  18  -4  -1    3.75    3.44
  18   4  -1    9.28    4.44
  17  -4  -1   20.15    3.74
 -17  -4   1   27.59    5.90
  17   4  -1   23.40    4.80
 -17   4   1   28.16    4.90
 -17  -4   1   26.51    3.42
  17  -4  -1   12.86    1.75
  17   4  -1   27.84    3.79
  16  -4  -1    5.80    3.43
 -16  -4   1   12.78    5.68
  16   4  -1   10.62    4.63
 -16   4   1    7.18    4.45
 -16  -4   1    0.96    3.19
  16  -4  -1    7.71    1.69
  16   4  -1   13.75    3.61
 -16   4   1   10.78    2.60
 -15   4   1   13.94    4.28
  15  -4  -1    1.19    3.46
  15   4  -1    2.12    4.55
 -15  -4   1   25.13    5.80
 -15  -4   1    9.72    3.49
  15   4  -1   17.78    3.96
  15  -4  -1    3.96    1.65
  14  -4  -1   19.57    1.75
 -14   4   1   17.99    4.28
 -14  -4   1   22.56    5.92
  14   4  -1   15.14    4.89
  14  -4  -1   16.10    3.76
 -14  -4   1   27.14    4.05
 -13  -4   1  116.56    6.83
 -13   4   1  108.74    2.72
 -13   4   1   80.59    4.51
  13  -4  -1   95.03    4.20
 -13  -4   1  106.89    5.09
  13   4  -1  102.73    5.39
 -12   4   1   25.00    3.83
  12   4  -1    5.11    4.66
 -12  -4   1   21.07    5.60
  12   4  -1   27.10    4.51
 -12  -4   1   28.40    4.22
 -11   4   1   22.05    1.64
  11   4  -1    8.66    4.54
 -11  -4   1   25.10    5.33
  11   4  -1   25.09    4.01
 -11  -4   1   22.36    3.91
  11  -4  -1   21.21    2.96
 -10   4   1   16.63    1.09
  10  -4  -1   20.63    2.84
 -10   4   1   18.43    3.41
 -10  -4   1   26.79    5.35
  10   4  -1    6.45    4.47
  10   4  -1   21.37    3.70
  -9   4   1  164.68    3.98
   9  -4  -1  184.61    3.71
  -9  -4   1  129.72    6.24
   9   4  -1  137.96    4.46
  -9  -4   1  173.01    5.31
  -8   4   1   17.63    2.88
   8  -4  -1    2.33    0.26
   8  -4  -1   19.60    2.75
   8   4  -1   14.49    4.44
   7  -4  -1  161.59    2.83
  -7   4   1  131.50    2.99
  -7  -4   1  135.24    5.55
   7   4  -1  144.47    4.81
   6  -4  -1   23.13    1.61
   6   4  -1   29.03    4.35
   5  -4  -1   23.62    1.99
  -5   4   1   25.98    1.70
   5   4  -1   38.04    4.21
   5   4  -1   31.86    4.25
  -5  -4   1   27.51    3.66
   4  -4  -1  306.50    3.43
  -4   4   1  307.44    3.04
  -3  -4   1  158.05    4.81
  -3   4   1  188.30    2.97
   3  -4  -1  179.88    3.22
  -2   4   1   26.95    2.44
   2   4  -1   19.92    3.44
   2  -4  -1   25.56    2.56
   2  -4  -1   14.32    2.56
  -1  -4   1   22.70    2.92
   1   4  -1   23.10    3.08
  -1   4   1   17.68    2.82
  -1   4   1   15.40    2.52
   1  -4  -1   11.94    2.67
   0   4  -1   15.89    2.73
   0   4   1    7.71    2.63
   0  -4  -1   15.02    2.80
   1   4   1   21.63    2.89
  -1   4  -1   16.03    2.63
   1  -4   1   22.48    2.64
  -1  -4  -1   15.51    2.96
   1   4   1   18.99    2.87
  -2  -4  -1   22.49    3.13
   2   4   1   14.17    3.02
   2   4   1   26.63    3.09
   3  -4   1   54.33    2.05
   3   4   1   56.91    3.42
  -3  -4  -1   47.99    3.56
   3   4   1   49.06    3.36
  -3  -4  -1   61.99    3.33
  -4  -4  -1   33.38    3.55
   4   4   1   19.36    3.22
   4   4   1   27.42    3.24
  -4  -4  -1   33.07    3.48
  -5  -4  -1   13.70    3.77
   5   4   1    2.82    3.36
   5   4   1   12.81    3.15
  -5  -4  -1    4.29    3.28
   6   4   1  124.32    4.13
  -6  -4  -1  175.45    5.37
   7   4   1   34.93    3.41
   7   4   1   31.15    4.15
  -7  -4  -1   30.74    3.64
  -8   4  -1   12.97    2.00
  -8  -4  -1   23.54    5.01
   8   4   1   12.27    4.25
   8   4   1   12.39    3.24
  -8  -4  -1   13.95    3.44
  -9  -4  -1    8.90    5.14
   9   4   1    5.15    4.51
  -9   4  -1   15.18    2.19
  -9  -4  -1   12.81    3.53
   9   4   1   16.44    3.38
  10  -4   1   10.88    3.11
 -10   4  -1   22.35    5.00
  10  -4   1   14.76    2.48
 -10   4  -1    8.08    2.28
 -10  -4  -1    6.68    3.59
  10   4   1   11.68    3.17
 -11   4  -1    7.37    2.71
 -11  -4  -1   26.77    5.86
  11   4   1   13.55    4.91
  11  -4   1   23.13    2.51
  11  -4   1    9.77    2.27
 -11   4  -1    9.35    3.14
 -11  -4  -1   20.65    3.86
  11   4   1   11.41    3.33
 -12   4  -1   13.60    2.78
  12  -4   1    9.14    2.26
  12   4   1    3.47    3.29
 -12   4  -1   16.02    3.21
 -12  -4  -1   20.41    6.02
  12   4   1    9.44    5.04
  13  -4   1    2.30    2.07
 -13   4  -1   -1.71    2.63
 -13  -4  -1   14.70    6.10
 -13   4  -1    5.81    3.57
  13   4   1   11.42    5.21
  13  -4   1   11.94    2.68
 -13  -4  -1   11.11    3.92
  13   4   1   -1.10    3.27
 -14   4  -1   14.14    2.69
  14  -4   1   12.31    2.45
  14  -4   1   22.36    3.06
  14   4   1   26.15    5.50
 -14  -4  -1   17.58    3.80
  14   4   1    7.55    3.30
  15  -4   1    1.89    2.22
 -15   4  -1    0.25    2.69
 -15  -4  -1    2.42    3.48
  15   4   1    4.55    2.97
 -15  -4  -1   12.51    6.22
  15   4   1    4.80    5.35
  15  -4   1   14.48    3.24
 -15   4  -1   10.28    4.21
 -16   4  -1    2.20    3.01
  16  -4   1   -1.17    1.93
 -16  -4  -1   -0.22    3.40
  16   4   1    1.91    2.97
 -16  -4  -1    5.08    6.22
  16   4   1    8.53    5.31
 -16   4  -1    7.25    4.40
 -17   4  -1   11.95    2.97
  17  -4   1    0.10    1.73
  17   4   1    5.76    2.94
 -17  -4  -1   -3.88    3.28
 -17  -4  -1   25.18    6.82
  17  -4   1   12.49    3.52
 -17   4  -1    4.44    4.68
  17   4   1    8.75    5.41
 -18   4  -1    7.39    2.73
  18  -4   1    3.04    1.72
 -18  -4  -1   10.06    3.38
  18   4   1    4.04    2.63
 -18  -4  -1   16.59    6.89
  18  -4   1    0.85    3.49
  18   4   1  -10.98    4.98
 -18   4  -1    7.64    4.88
 -19   4  -1    0.97    2.62
 -19  -4  -1    8.63    3.49
  19   4   1   -2.61    2.31
  19  -4   1   -1.27    1.78
  19   4   1    4.84    5.14
  19  -4   1   -1.29    3.58
 -19  -4  -1    0.60    6.77
 -19   4  -1    4.56    4.99
 -20   4  -1    4.32    2.68
 -20   4  -1    4.96    5.35
  20   4   1    4.84    5.27
  20  -4   1   -4.61    3.67
 -20  -4  -1   15.44    6.90
  20  -4   1    3.93    2.01
  20   4   1    4.83    2.41
 -20  -4  -1   10.87    3.53
  19  -5  -1    6.44    3.15
 -19   5   1   12.29    4.40
 -19  -5   1   -3.53    5.08
  19   5  -1   10.81    4.37
  19   5  -1    6.69    3.09
 -19  -5   1    9.44    2.72
 -19   5   1    6.40    2.57
  19  -5  -1    3.00    1.35
 -18  -5   1    3.56    5.37
  18   5  -1    0.15    4.36
 -18   5   1    0.09    4.07
  18  -5  -1    9.17    3.24
 -18   5   1   13.60    2.54
 -18  -5   1   13.75    2.99
  18   5  -1    8.91    3.23
  18  -5  -1    3.88    1.37
 -17   5   1    8.85    4.17
 -17  -5   1    7.02    2.91
  17  -5  -1    2.20    1.32
  17   5  -1   11.23    3.57
  17  -5  -1    5.74    3.16
  17   5  -1    1.60    4.30
 -16   5   1    2.58    3.92
 -16  -5   1   21.14    3.31
  16   5  -1   29.19    3.98
  16  -5  -1    5.32    1.36
  16  -5  -1   16.14    3.36
 -16  -5   1   29.82    5.77
  16   5  -1    9.74    4.50
 -16   5   1   28.69    2.49
 -15   5   1    1.91    3.65
  15  -5  -1    2.79    1.23
 -15  -5   1    8.10    3.42
  15   5  -1    4.00    4.35
 -15  -5   1    7.22    5.49
 -15   5   1   10.91    2.06
 -14  -5   1    5.69    5.31
  14   5  -1   -0.25    4.44
  14  -5  -1    9.55    1.22
  14   5  -1   13.37    4.01
 -14  -5   1    9.28    3.59
 -14   5   1    6.76    3.56
  14  -5  -1    9.30    3.08
 -13   5   1   20.85    1.59
 -13  -5   1   16.96    5.52
  13   5  -1   -2.06    4.48
  13   5  -1   23.48    4.39
  13  -5  -1    6.33    0.98
 -13  -5   1   19.43    3.88
 -13   5   1   24.86    3.55
  13  -5  -1   20.98    2.96
 -12   5   1   14.18    1.01
 -12   5   1   11.46    3.44
  12  -5  -1    4.88    2.68
 -12  -5   1   21.23    5.43
  12   5  -1    5.65    4.65
  12   5  -1   15.81    4.36
 -12  -5   1   16.49    3.98
  12  -5  -1    4.52    0.65
  11   5  -1   35.49    4.42
 -11  -5   1   35.22    4.27
  11  -5  -1   29.77    2.83
  11   5  -1   33.22    4.93
 -11   5   1   13.35    0.59
  11  -5  -1    7.01    0.35
 -10   5   1   12.06    3.36
  10  -5  -1   17.41    2.76
 -10  -5   1   18.57    3.93
  10   5  -1   14.24    3.65
 -10  -5   1   25.31    5.21
  10   5  -1   -2.19    4.43
  -9   5   1   12.45    2.99
   9  -5  -1   11.46    2.56
   9   5  -1   10.87    4.52
  -9  -5   1   14.59    3.82
   9   5  -1   14.71    3.60
   8   5  -1   41.49    4.75
  -8  -5   1   82.28    5.57
   8   5  -1   87.58    4.58
  -8  -5   1   67.40    3.93
   8  -5  -1   47.38    2.10
  -8   5   1   43.46    2.50
   7  -5  -1   17.20    1.43
   7   5  -1   24.56    4.44
  -6  -5   1   92.09    5.24
  -6   5   1   80.03    1.93
  -6  -5   1   75.00    3.93
   6   5  -1  101.52    4.73
  -5  -5   1   67.17    3.98
   5   5  -1   90.66    4.76
  -5  -5   1   92.02    5.21
  -5   5   1   77.17    2.28
  -4  -5   1  310.61    5.78
  -4   5   1  288.77    3.50
  -4  -5   1  305.61    6.45
  -3   5   1  174.30    3.31
  -3  -5   1  209.25    5.62
  -2   5   1   22.72    2.81
   2  -5  -1   25.51    2.32
  -2   5   1   32.68    2.71
   2   5  -1   25.25    3.70
   2  -5  -1   26.84    2.69
  -1  -5   1   24.22    3.38
  -1   5   1   33.11    3.05
   1   5  -1   17.69    3.44
  -1   5   1   31.07    2.80
   1  -5  -1   26.92    2.46
   0  -5  -1   38.94    2.69
   0   5   1   28.95    2.92
   0   5  -1   37.69    3.26
  -1   5  -1   14.09    2.70
   1  -5   1   16.02    2.62
  -1  -5  -1   21.22    2.75
   1   5   1   20.97    2.94
   1   5   1   10.23    2.81
  -1  -5  -1   14.81    2.63
   2   5   1   34.29    3.02
  -2  -5  -1   48.07    3.09
  -2  -5  -1   52.89    2.95
   2  -5   1   52.82    2.68
  -2   5  -1   41.45    2.52
  -3   5  -1   32.02    2.53
   3   5   1   22.65    3.12
  -3  -5  -1   30.23    2.90
   4  -5   1  176.59    2.62
   4   5   1  138.07    4.31
  -5  -5  -1    9.05    2.78
   5   5   1   11.45    3.26
  -5   5  -1    6.45    1.22
   5   5   1    3.56    3.49
  -6  -5  -1   11.76    4.27
   6   5   1   -0.94    3.63
   6   5   1    6.27    3.07
  -6  -5  -1    2.97    2.73
  -7  -5  -1   35.88    4.89
   7   5   1   26.72    4.34
  -7  -5  -1   19.22    3.17
   7   5   1   20.50    3.45
  -8  -5  -1   15.55    5.23
   8   5   1    3.57    4.47
  -8  -5  -1   18.99    3.42
   8   5   1   23.25    3.70
   9   5   1   41.56    5.13
  -9  -5  -1   39.48    3.89
   9   5   1   43.52    4.06
  -9   5  -1   32.77    2.08
 -10   5  -1   23.99    2.20
  10   5   1   19.80    5.21
 -10  -5  -1   32.90    3.82
  10   5   1   24.37    3.85
  11  -5   1   10.06    2.31
 -11   5  -1   11.32    2.26
 -11  -5  -1   21.90    6.09
  11   5   1   14.71    5.08
  11   5   1    7.32    3.60
 -11  -5  -1   10.73    3.61
 -12   5  -1   15.71    6.24
  12   5   1    6.61    5.24
 -12   5  -1    0.35    2.55
 -12  -5  -1   18.06    6.04
  12  -5   1    5.67    2.33
 -12  -5  -1    8.38    3.44
  12   5   1    9.95    3.67
  12  -5   1    3.68    3.28
 -13   5  -1   19.61    3.20
  13   5   1   10.71    5.29
  13  -5   1   12.90    2.38
 -13  -5  -1   13.85    3.54
  13   5   1    7.04    3.38
 -13   5  -1   17.19    3.72
  13  -5   1    2.35    2.11
 -14  -5  -1   10.64    6.21
  14  -5   1   -0.97    2.32
  14   5   1   10.49    5.23
 -14   5  -1   10.59    3.49
 -14  -5  -1    2.76    3.22
  14   5   1    5.49    3.23
 -14   5  -1    5.49    2.71
  14  -5   1   -0.20    1.87
  15  -5   1    7.62    1.70
 -15   5  -1    9.09    3.85
 -15  -5  -1    4.58    6.21
  15   5   1    4.35    5.23
  15  -5   1    0.09    2.50
  15   5   1   -1.29    3.01
 -15  -5  -1    4.89    3.11
 -15   5  -1    4.24    2.70
 -16   5  -1    6.04    2.45
  16  -5   1    2.00    1.68
  16   5   1   -3.93    2.82
 -16  -5  -1    6.95    3.26
 -16   5  -1    1.42    4.01
  16   5   1   -6.77    5.25
  16  -5   1    7.05    2.84
  17  -5   1    5.60    1.84
 -17   5  -1    1.80    2.33
  17   5   1   -0.82    2.66
 -17  -5  -1   -3.30    2.87
 -17  -5  -1   15.74    6.50
  17  -5   1   10.57    3.03
  17   5   1    2.93    5.14
 -17   5  -1    5.77    4.26
  18  -5   1   -1.63    1.61
 -18   5  -1   -2.81    2.53
  18  -5   1   14.66    3.27
  18   5   1   14.68    5.28
 -18  -5  -1    4.43    6.46
 -18   5  -1   -0.85    4.40
 -18  -5  -1    1.34    2.93
  18   5   1   -0.12    2.65
 -17   6   1    4.98    1.64
 -17  -6   1   15.81    5.30
  17   6  -1   -8.86    3.99
  17  -6  -1    9.10    2.89
  17  -6  -1    7.31    1.18
 -17  -6   1    9.96    2.94
  17   6  -1   15.01    3.66
 -17   6   1    0.53    3.47
 -16   6   1    8.27    1.55
 -16  -6   1   13.48    5.41
  16   6  -1   14.62    4.47
 -16  -6   1   -0.59    2.91
  16  -6  -1    6.52    1.14
  16   6  -1   15.95    3.64
 -16   6   1   12.77    3.52
  16  -6  -1    3.42    2.94
 -15   6   1    5.22    1.37
  15  -6  -1    1.47    0.86
 -15   6   1    9.99    3.33
  15  -6  -1    6.71    2.75
  15   6  -1   -5.67    4.11
  15   6  -1    5.98    3.57
 -15  -6   1    5.64    3.09
  14  -6  -1    0.90    0.57
 -14   6   1    4.44    3.32
  14  -6  -1    5.80    2.56
 -14   6   1    3.05    0.90
 -14  -6   1   -0.54    5.29
  14   6  -1   -6.23    4.00
 -14  -6   1   -1.98    2.89
  14   6  -1    8.71    3.78
 -13  -6   1   13.46    3.36
 -13  -6   1   11.65    5.24
  13   6  -1   10.48    4.40
  13  -6  -1    2.19    0.33
  13  -6  -1    3.98    2.35
 -13   6   1   17.09    3.26
 -12   6   1   14.41    3.05
  12  -6  -1    9.97    2.43
 -12  -6   1   10.58    4.96
  12   6  -1    1.97    4.19
  12   6  -1    7.14    3.69
 -12  -6   1    4.82    3.40
  11  -6  -1   11.68    2.64
 -11  -6   1    3.49    4.91
  11   6  -1    5.51    4.36
 -11   6   1    4.92    2.90
 -11  -6   1    9.14    3.72
  11   6  -1    8.63    3.75
  10   6  -1   16.35    4.49
 -10  -6   1   24.80    5.12
 -10   6   1    9.36    2.54
  10  -6  -1   11.44    2.24
  10   6  -1    8.04    3.54
 -10  -6   1    4.50    3.69
   9  -6  -1    8.58    1.67
  -9  -6   1   26.05    4.03
   9   6  -1   25.06    3.83
  -9   6   1    6.44    1.74
  -9  -6   1   31.02    5.10
   9   6  -1   14.18    4.38
  -8  -6   1   19.88    4.85
   8   6  -1    4.71    4.27
   8   6  -1   20.25    4.13
  -8  -6   1    5.97    3.33
   8  -6  -1    2.79    1.31
   7   6  -1   16.71    4.43
   7  -6  -1   25.40    1.73
   6  -6  -1    6.27    1.79
  -6  -6   1   15.12    3.40
  -6  -6   1   15.49    4.63
   6   6  -1    3.82    4.16
   5   6  -1  126.23    5.13
  -5  -6   1   98.39    4.33
  -5  -6   1   97.96    5.17
  -5   6   1  106.63    2.89
  -4   6   1   18.54    2.33
   4  -6  -1    9.33    2.10
   4   6  -1   16.03    4.04
   4  -6  -1   19.43    2.32
  -3  -6   1   11.92    3.28
  -3   6   1   19.66    2.34
   3  -6  -1   10.41    2.24
   3   6  -1   12.41    3.87
   3  -6  -1   15.83    2.43
  -3  -6   1   21.18    4.13
  -3   6   1   19.63    2.72
   2   6  -1   19.33    3.73
  -2   6   1   18.42    2.89
   2  -6  -1   16.55    2.39
  -2   6   1   18.15    2.54
   2  -6  -1   12.58    2.44
   1  -6  -1   18.75    2.63
  -1   6   1   14.67    2.74
   1  -6  -1   20.08    2.60
   0  -6   1   22.33    3.29
   0  -6  -1   11.31    2.59
   0   6   1    9.59    2.80
   0   6  -1   20.36    3.37
   0  -6  -1   22.31    2.72
   0   6   1    7.36    2.82
   1  -6   1   10.65    2.79
  -1   6  -1    2.87    3.08
  -1  -6  -1   10.18    2.68
   1   6   1    5.02    2.84
   1   6   1   11.61    2.82
  -1  -6  -1    4.53    2.76
  -2   6  -1    6.04    2.70
   2  -6   1   11.71    2.45
  -2  -6  -1    5.49    2.78
   2   6   1    1.38    2.84
   2   6   1   13.37    2.93
  -2  -6  -1    7.21    3.09
  -3   6  -1   14.72    2.35
   3  -6   1   14.47    2.40
  -3  -6  -1    9.16    2.94
   3   6   1   13.97    3.10
   3   6   1   13.70    3.16
  -3  -6  -1   17.75    3.53
  -4   6  -1   10.74    2.27
   4  -6   1   13.61    2.18
  -4  -6  -1    5.55    3.70
   4   6   1    2.18    3.37
  -4  -6  -1    8.44    2.96
   4   6   1   13.39    3.24
  -5   6  -1    7.04    1.88
  -5  -6  -1   10.28    4.17
   5   6   1    6.20    3.73
  -5  -6  -1    7.32    3.05
   5   6   1   10.98    3.26
   6   6   1   12.47    4.00
   6  -6   1   13.44    1.05
  -7  -6  -1   34.55    5.30
   7   6   1   14.80    4.33
  -8  -6  -1   12.19    5.52
   8   6   1   11.82    4.82
  -8  -6  -1    8.87    3.57
   8   6   1    8.37    3.64
   9   6   1    7.96    5.01
  -9  -6  -1   18.92    5.77
  -9  -6  -1   14.62    3.68
   9   6   1   13.31    3.65
 -10   6  -1   22.98    1.86
 -10  -6  -1   38.06    6.11
  10   6   1    8.82    5.06
  10   6   1   29.28    3.84
 -11  -6  -1    8.28    3.13
  11   6   1    0.29    3.30
  11  -6   1   12.60    2.26
 -11   6  -1    3.63    1.77
  11   6   1   18.69    5.10
 -12  -6  -1   17.84    3.25
  12   6   1    1.52    3.13
  12   6   1   17.53    5.14
 -12  -6  -1    6.83    5.80
  12  -6   1    7.82    2.05
 -12   6  -1    7.46    2.05
 -13  -6  -1    0.11    2.87
 -13  -6  -1   -2.39    5.82
  13   6   1   -3.87    4.92
  13  -6   1    0.60    2.07
 -13   6  -1   -6.56    2.45
  14  -6   1   -0.34    2.78
  14   6   1    4.35    5.05
 -14   6  -1   -0.48    3.00
 -14  -6  -1   -1.70    6.04
  14  -6   1    1.14    2.10
 -14  -6  -1    0.42    2.69
  14   6   1    4.55    2.97
 -15  -6  -1   -7.08    6.18
 -15   6  -1   -3.09    3.30
  15   6   1    2.64    5.14
  15  -6   1    0.54    2.15
 -15  -6  -1    3.28    2.75
  15   6   1    7.37    2.90
  15  -6   1    4.79    1.88
 -15   6  -1   -2.85    3.95
 -16  -6  -1    7.02    6.48
  16  -6   1    1.22    2.36
 -16   6  -1   -2.89    3.60
  16   6   1   10.87    5.20
 -16  -6  -1    6.56    2.84
  16   6   1   -2.27    2.71
 -16   6  -1   -4.10    2.92
  16  -6   1    3.47    1.69
  17  -6   1    1.60    1.46
 -17   6  -1    0.34    2.53
 -17  -6  -1    5.65    6.39
  17  -6   1    3.44    2.49
 -17   6  -1   -3.49    3.75
  17   6   1   -2.55    4.88
 -17  -6  -1    4.73    2.94
  17   6   1    3.97    2.72
  15  -7  -1    0.47    0.31
 -15   7   1   -6.65    2.94
  15   7  -1   -3.41    3.36
 -15  -7   1    5.60    2.81
  15   7  -1    3.38    4.11
  14  -7  -1    4.61    2.14
 -14   7   1    3.50    3.41
  14   7  -1   12.79    3.68
 -14  -7   1   -1.39    2.69
 -14  -7   1    7.21    5.00
  14   7  -1    4.51    4.16
  13  -7  -1    1.19    2.07
 -13   7   1    4.88    3.00
 -13  -7   1   14.55    5.00
  13   7  -1   -0.56    4.12
  13   7  -1    6.19    3.57
 -13  -7   1    9.33    3.07
  12  -7  -1    2.83    2.39
  12   7  -1    8.88    3.49
 -12  -7   1    1.25    3.15
 -12   7   1   -0.49    2.58
 -12  -7   1    2.33    4.81
  12   7  -1   14.09    4.26
  11   7  -1   13.09    3.42
 -11  -7   1    3.66    3.19
 -11  -7   1    7.74    4.83
  11   7  -1    6.39    4.06
  11  -7  -1    4.76    1.74
 -11   7   1    1.22    2.10
 -10  -7   1   14.21    4.95
  10   7  -1   -2.86    3.92
  10  -7  -1    6.41    1.27
  -9  -7   1   -0.99    4.61
   9   7  -1    3.85    4.09
  -9  -7   1    1.25    3.26
   9   7  -1    2.71    3.62
  -8  -7   1   27.99    4.88
   8   7  -1   -1.39    3.94
   8  -7  -1   15.48    1.53
  -8  -7   1   25.27    3.49
   8   7  -1   24.03    3.98
   7  -7  -1    5.12    1.51
  -7  -7   1    7.46    2.95
  -7  -7   1   10.16    4.50
   7   7  -1   -2.01    3.93
   6  -7  -1   -0.27    1.66
  -6  -7   1   11.30    2.97
  -6  -7   1   13.65    4.41
   6   7  -1   -7.69    3.75
   5  -7  -1    6.50    1.89
  -5  -7   1   12.47    3.23
  -5  -7   1   18.54    4.39
   5   7  -1   -2.94    3.75
   5  -7  -1    8.75    2.06
   4  -7  -1   11.30    2.17
   4   7  -1    6.24    3.84
  -4   7   1    5.44    2.68
   3   7  -1   21.43    4.05
  -3   7   1   27.71    3.06
   3  -7  -1   29.48    2.55
  -2  -7   1   33.91    4.20
   2   7  -1   15.53    3.76
  -2   7   1   30.54    2.89
  -1   7   1   37.24    3.05
   1   7  -1   32.70    3.74
  -1  -7   1   50.34    4.18
   1  -7  -1   43.83    3.02
   0   7  -1    6.30    3.30
   0  -7  -1   10.79    2.70
  -1   7  -1    6.59    3.01
   1   7   1   14.95    3.05
   2  -7   1   12.25    2.76
  -2  -7  -1   13.49    2.88
   2   7   1   16.94    3.09
   2   7   1    8.92    2.98
  -2   7  -1   10.02    3.02
  -3   7  -1    2.80    2.76
   3  -7   1    8.86    2.46
  -3  -7  -1    0.68    2.76
   3   7   1    8.15    2.95
   3   7   1    0.57    3.13
  -3  -7  -1   12.44    3.64
  -4   7  -1    2.27    2.39
   4  -7   1   18.60    2.40
  -4  -7  -1   -1.20    2.80
   4   7   1   11.81    3.12
  -4  -7  -1   19.21    4.16
   4   7   1    6.39    3.46
   5  -7   1    9.83    2.28
  -5   7  -1   -0.92    2.04
   5   7   1    1.96    3.73
  -5  -7  -1    6.67    3.01
   5   7   1    4.76    3.05
  -6   7  -1   10.43    1.78
  -6  -7  -1   15.13    4.83
   6   7   1   16.84    4.13
  -6  -7  -1    9.60    3.14
   6   7   1    5.95    3.11
   6  -7   1   13.55    1.80
  -7  -7  -1   14.79    3.25
   7   7   1   11.50    3.31
  -7   7  -1    9.01    1.29
   7  -7   1    6.22    1.00
  -7  -7  -1   15.45    5.23
   7   7   1    9.41    4.35
  -8  -7  -1   23.66    5.59
   8   7   1    7.02    4.62
  -8  -7  -1   13.78    3.27
   8   7   1    5.76    3.23
   9   7   1    0.12    4.74
   9   7   1    6.10    3.12
 -10  -7  -1   24.82    5.91
  10   7   1   11.83    4.90
 -10  -7  -1    7.10    2.95
  10   7   1   12.53    3.25
 -11  -7  -1    4.46    5.76
  11   7   1    5.71    4.84
 -11   7  -1    5.38    1.44
 -11  -7  -1    0.11    2.82
  11   7   1    2.45    2.89
 -12  -7  -1    4.30    5.63
  12   7   1    6.54    4.73
 -12   7  -1    2.35    1.58
 -12  -7  -1   -3.68    2.78
  12   7   1    8.26    2.90
 -13  -7  -1   12.60    5.93
  13   7   1   -0.16    4.92
  13  -7   1   -0.89    1.77
 -13   7  -1    2.40    2.02
 -13  -7  -1    5.12    2.88
  13   7   1    1.11    2.82
 -14  -7  -1   15.27    6.25
  14   7   1    1.16    4.85
  14  -7   1    4.13    1.96
 -14   7  -1    2.26    2.55
 -14  -7  -1    1.10    2.67
  14   7   1    6.13    2.85
 -12  -8   1    0.27    2.69
  12   8  -1   12.68    3.30
  12  -8  -1    3.82    1.40
 -12  -8   1    4.31    4.55
  12   8  -1   11.89    4.09
 -12   8   1    0.94    1.69
 -11  -8   1    9.98    4.76
  11   8  -1    8.12    3.88
  11  -8  -1    4.14    1.08
  11   8  -1    2.80    3.03
 -11  -8   1    4.51    3.03
 -10  -8   1    1.03    2.95
  10   8  -1    2.51    3.22
 -10  -8   1   10.82    4.65
  10   8  -1   -0.13    3.79
   9   8  -1   17.85    3.69
   9  -8  -1   15.21    1.60
  -9  -8   1    8.75    4.60
   9   8  -1   -1.82    3.83
  -8  -8   1    2.10    4.40
   8   8  -1    1.95    3.92
   8  -8  -1    3.42    1.44
   8   8  -1    1.36    3.50
  -8  -8   1   -0.24    2.92
  -7  -8   1   10.57    4.37
   7   8  -1    3.48    3.77
  -7  -8   1   -2.37    2.65
   7  -8  -1    5.24    1.50
  -6  -8   1    6.47    4.21
   6   8  -1   12.82    3.80
   6  -8  -1    8.55    1.61
  -6  -8   1    6.41    2.46
  -5   8   1    8.54    2.54
   5   8  -1    1.15    3.49
   5  -8  -1    3.78    1.92
  -5  -8   1    6.26    4.07
   5  -8  -1    5.04    1.67
  -5  -8   1   12.82    2.69
  -4  -8   1    5.84    3.97
   4   8  -1   -4.94    3.39
  -4   8   1    0.83    2.51
   4  -8  -1    4.38    2.07
  -4  -8   1    5.47    2.63
   4  -8  -1    0.85    1.68
  -4   8   1    0.50    2.67
  -3  -8   1    8.52    3.80
   3   8  -1    4.45    3.47
   3  -8  -1    4.13    2.16
  -3   8   1    1.13    2.38
  -3   8   1   11.20    2.84
  -3  -8   1    4.81    2.67
   3  -8  -1    3.47    1.89
   2   8  -1   -1.56    3.21
  -2  -8   1   12.73    3.51
  -2   8   1   -3.67    2.54
   2  -8  -1    7.74    2.28
   2  -8  -1    4.04    2.01
  -2  -8   1    1.33    2.63
  -2   8   1    7.22    2.73
  -1  -8   1    1.50    3.34
   1   8  -1   -2.23    3.10
  -1   8   1    6.85    2.64
   1  -8  -1    8.90    2.55
   1  -8  -1    1.41    2.06
  -1   8   1    6.57    2.61
   0   8  -1    8.48    3.19
   0  -8  -1    7.48    2.91
   0  -8   1    9.12    3.36
   0   8   1    7.32    2.70
   0  -8  -1    8.16    2.29
   0   8   1    5.29    2.57
   1   8   1    4.52    2.87
  -1   8  -1    0.30    2.99
  -1  -8  -1    5.15    3.22
   1  -8   1    3.60    3.18
  -1  -8  -1    5.93    2.35
   1   8   1    6.48    2.57
  -2   8  -1    7.76    2.88
  -2  -8  -1    3.40    3.54
   2   8   1   -3.33    2.87
  -2  -8  -1   -3.99    2.14
   2   8   1    4.52    2.63
   2  -8   1    7.53    2.86
  -3  -8  -1   -5.02    3.71
   3   8   1   -0.88    3.08
  -3   8  -1    6.42    2.57
  -3  -8  -1    2.41    2.35
   3   8   1    5.04    2.59
   3  -8   1    6.20    2.50
  -4  -8  -1   -7.34    3.92
   4   8   1    4.95    3.40
  -4  -8  -1    0.62    2.42
   4   8   1    6.59    2.74
  -4   8  -1    3.86    2.49
   4  -8   1    6.40    2.24
  -5  -8  -1    6.84    4.44
   5   8   1   -2.65    3.65
  -5  -8  -1    4.15    2.56
   5   8   1    6.08    2.76
   5  -8   1    5.64    2.15
  -5   8  -1   -3.20    2.38
  -6  -8  -1    1.66    4.68
   6   8   1    4.59    4.05
  -6  -8  -1    1.66    2.53
   6   8   1    3.35    2.73
   6  -8   1    8.44    2.42
  -6   8  -1    0.86    2.03
  -7   8  -1    8.63    1.54
  -7  -8  -1   14.15    5.15
   7   8   1   13.74    4.34
  -7  -8  -1    4.47    2.76
   7   8   1   13.38    3.04
  -8   8  -1    3.80    1.06
   8  -8   1    2.54    1.03
  -8  -8  -1    7.24    2.81
   8   8   1    6.10    3.05
  -8  -8  -1  -13.04    4.98
   8   8   1    4.81    4.37
  -9   8  -1    0.44    0.59
  -9  -8  -1   -1.55    2.55
   9   8   1    2.15    2.93
  -9  -8  -1    8.07    5.43
   9   8   1    5.33    4.49
 -10  -8  -1   -1.95    2.45
  10   8   1   -9.19    4.47
 -10  -8  -1   -3.88    5.29
 -11  -8  -1    5.00    2.57
  11   8   1    4.28    2.70
  11   8   1   -2.23    4.64
 -11  -8  -1    9.58    5.50
  -7  -9   1    3.56    2.66
   7   9  -1   10.44    3.58
   7  -9  -1    4.46    1.53
  -7  -9   1    5.53    4.08
   7   9  -1   -1.42    3.48
  -6   9   1    6.89    2.52
  -6  -9   1    3.30    2.29
   6  -9  -1    1.53    1.47
   6   9  -1    4.67    3.57
  -6  -9   1    8.41    4.12
   6  -9  -1    7.22    1.86
   6   9  -1    0.34    3.51
   5  -9  -1    0.89    1.49
  -5  -9   1    5.71    2.30
  -5  -9   1    4.14    3.90
  -5   9   1    0.09    2.37
   5  -9  -1    2.01    1.89
   5   9  -1   -4.80    3.27
  -4   9   1    4.82    2.91
  -4  -9   1    4.13    2.43
  -4  -9   1    6.95    3.81
   4  -9  -1    1.22    1.93
   4   9  -1   -0.39    3.31
  -4   9   1   -1.62    2.31
  -3  -9   1    0.30    2.24
  -3   9   1    7.52    2.95
   3  -9  -1   -2.57    1.63
   3  -9  -1    1.39    2.12
   3   9  -1    2.01    3.23
  -3   9   1    2.66    2.44
  -2   9   1   -1.15    2.81
  -2  -9   1    4.09    2.38
   2  -9  -1    3.25    1.82
  -2  -9   1    1.52    3.29
  -2   9   1   -1.07    2.42
   2  -9  -1    0.81    2.45
   2   9  -1   -0.51    3.04
  -1   9   1    3.92    2.81
   1  -9  -1    3.83    1.87
  -1  -9   1    8.21    3.21
  -1   9   1    1.55    2.40
   1  -9  -1    5.56    2.73
   1   9  -1    0.79    3.02
   0  -9  -1   -0.69    1.88
   0   9   1    2.89    2.76
   0   9   1    2.25    2.60
   0  -9   1    6.28    3.27
   0  -9  -1    6.82    3.05
   0   9  -1    6.43    3.05
   1   9   1   13.96    2.78
  -1  -9  -1    4.94    2.17
   1  -9   1   13.75    3.27
  -1   9  -1    5.62    2.89
  -1  -9  -1   12.64    3.57
   1   9   1   11.78    2.81
   2  -9   1    1.20    2.94
   2   9   1   13.23    2.73
  -2  -9  -1    3.19    2.03
  -2  -9  -1   10.62    3.76
  -2   9  -1    9.84    2.79
   2   9   1    4.77    2.88
   3  -9   1    1.03    2.62
   3   9   1    5.80    2.55
  -3  -9  -1   -0.09    2.07
  -3   9  -1   -4.82    2.50
  -3  -9  -1   -2.92    3.82
   3   9   1    2.30    3.15
   4  -9   1    0.96    2.29
   4   9   1    5.50    2.60
  -4  -9  -1    0.57    2.20
  -4  -9  -1    6.77    4.07
  -4   9  -1    0.48    2.43
   4   9   1   -4.75    3.18
   5  -9   1    4.48    2.19
  -5   9  -1    6.11    2.37
  -5  -9  -1    5.03    2.37
   5   9   1    2.66    2.53
  -5  -9  -1    3.29    4.50
   5   9   1   -2.09    3.43
   6  -9   1    4.00    2.08
  -6   9  -1   -4.28    2.05
  -6  -9  -1    1.15    2.38
   6   9   1   -1.04    2.53
   6   9   1   -1.88    3.83
  -6  -9  -1    1.47    4.74
 -23   0   2   20.71    3.07
  23   0  -2    9.11    2.75
  23   0  -2   25.21    4.47
 -22   0   2    8.19    3.01
  22   0  -2    3.27    2.54
 -22   0   2   25.11    6.26
  22   0  -2   10.07    4.02
  21   0  -2    2.10    2.51
 -21   0   2   10.24    6.08
  21   0  -2    4.69    4.12
  20   0  -2    3.96    2.51
  20   0  -2   18.66    4.47
 -20   0   2   19.93    5.97
  19   0  -2    5.29    2.61
 -19   0   2   17.86    3.63
 -19   0   2   29.12    6.27
  19   0  -2   25.93    4.74
  18   0  -2   16.24    3.18
  18   0  -2   18.95    4.96
 -17   0   2   10.07    3.46
  17   0  -2   10.21    3.33
  17   0  -2   24.28    5.04
  16   0  -2   17.64    4.66
 -16   0   2   10.47    5.38
  15   0  -2    3.55    4.24
 -15   0   2    3.50    5.10
 -14   0   2   43.72    5.27
  14   0  -2   43.17    4.71
 -13   0   2   25.48    4.91
  13   0  -2   15.37    4.19
 -13   0   2   26.11    3.42
 -12   0   2   65.17    5.14
  12   0  -2   42.36    4.32
  11   0  -2   33.71    4.21
 -11   0   2   37.76    4.79
 -10   0   2   31.58    4.86
  10   0  -2   33.00    4.35
   9   0  -2  151.45    5.30
  -9   0   2  199.17    5.93
  -8   0   2  307.38    6.88
   8   0  -2  250.00    5.81
  -7   0   2  685.29    7.80
   7   0  -2  638.94    7.53
   6   0  -2 1119.37    9.35
  -6   0   2 1392.99   10.29
   5   0  -2  149.00    4.50
  -5   0   2  177.91    4.82
   4   0  -2  301.74    4.74
  -4   0   2  362.31    5.05
  -3   0   2  293.10    4.09
   3   0  -2  238.10    3.96
  -2   0   2 2316.81    9.06
   2   0  -2 1194.57    7.46
   1   0   2 2747.10   18.18
  -1   0  -2 2784.05   18.32
  -2   0  -2   69.63    5.38
   2   0   2   44.69    5.31
   3   0   2  165.07    4.40
  -3   0  -2  183.98    4.49
   4   0   2  159.78    4.16
  -4   0  -2  155.66    4.10
  -5   0  -2   35.95    3.88
   5   0   2   35.86    3.97
  -5   0  -2   24.53    3.30
   5   0   2   16.69    3.19
  -6   0  -2  309.91    5.35
   6   0   2  356.41    5.67
   6   0   2  310.82    4.85
  -6   0  -2  319.37    4.80
  -7   0  -2   24.79    3.92
   7   0   2   23.36    3.86
  -8   0  -2  414.81    6.23
   8   0   2  382.23    5.94
  -9   0  -2  644.69    7.03
   9   0   2  672.29    7.21
 -10   0  -2   40.82    3.66
  10   0   2   42.92    4.09
 -10   0  -2   34.87    3.90
  10   0   2   26.73    3.18
  11   0   2   15.91    2.96
 -11   0  -2   27.41    3.28
  12   0   2    9.00    2.94
 -12   0  -2   30.27    3.47
  13   0   2   29.54    4.10
 -13   0  -2   23.01    4.02
 -13   0  -2   13.96    3.56
  13   0   2   19.16    3.44
  14   0   2  179.73    5.57
 -14   0  -2  183.27    5.67
 -15   0  -2   94.82    5.74
  15   0   2  118.22    5.45
 -15   0  -2   77.67    5.26
 -16   0  -2  631.48    9.60
  16   0   2  558.01    8.31
 -17   0  -2   23.38    4.73
  17   0   2   16.17    3.74
  17   0   2   23.41    4.51
 -17   0  -2   19.12    5.27
 -18   0  -2   12.64    4.26
  18   0   2    6.64    3.10
  18   0   2    6.30    3.82
 -18   0  -2    2.41    4.77
 -19   0  -2   16.34    4.33
  19   0   2    9.94    2.84
  19   0   2   13.22    4.00
 -19   0  -2   11.55    5.07
 -20   0  -2    8.11    4.15
  20   0   2    4.01    2.65
  20   0   2    0.54    3.83
 -20   0  -2    3.39    5.10
 -21   0  -2    0.95    3.71
  21   0   2    3.92    2.67
  21   0   2    2.60    3.87
 -21   0  -2   12.07    5.24
 -23   1   2    8.83    2.65
 -23  -1   2   19.94    3.19
  23  -1  -2    6.40    2.46
  23   1  -2    9.39    2.80
 -23   1   2   15.22    5.99
 -23  -1   2   12.38    5.92
  23  -1  -2   17.24    4.04
  23   1  -2   12.50    4.27
  22   1  -2   14.00    2.98
 -22   1   2   16.46    2.93
 -22  -1   2    9.86    3.17
  22  -1  -2    7.93    2.50
 -22   1   2    3.85    5.70
 -22  -1   2    8.39    6.00
  22   1  -2    2.44    4.15
  22  -1  -2   14.52    4.05
 -21   1   2   13.35    2.91
 -21  -1   2    1.00    3.12
  21  -1  -2    3.80    2.42
  21   1  -2    8.54    2.80
 -21  -1   2    5.15    6.04
  21  -1  -2   -0.53    3.94
  21   1  -2   -0.87    4.18
 -21   1   2   18.64    5.77
 -20   1   2   21.99    3.29
  20   1  -2    1.70    2.77
 -20  -1   2   14.39    3.61
  20  -1  -2    9.70    2.59
 -20   1   2   24.55    5.66
  20  -1  -2   12.16    4.31
 -20  -1   2   32.69    6.50
  20   1  -2   25.88    4.60
  19   1  -2   10.52    2.72
 -19  -1   2   21.76    3.90
  19  -1  -2   16.70    2.55
 -19   1   2   36.15    3.67
 -19  -1   2   40.72    6.75
  19   1  -2   23.47    4.76
  19  -1  -2   20.98    4.56
 -19   1   2   36.78    5.86
 -18  -1   2   25.97    4.09
  18  -1  -2   19.85    2.94
  18   1  -2   24.00    3.30
  18   1  -2   12.21    4.82
  18  -1  -2   21.23    4.75
 -18   1   2    8.46    5.49
 -18  -1   2   22.19    6.27
  17   1  -2   18.68    3.68
  17  -1  -2   18.62    3.19
 -17   1   2   20.76    3.45
 -17  -1   2   31.87    6.19
  17   1  -2   18.59    5.05
 -17   1   2   15.37    5.45
  17  -1  -2   13.13    4.52
 -16   1   2   10.95    5.20
  16  -1  -2   18.67    3.19
  16   1  -2   25.71    3.78
 -16  -1   2   28.51    3.40
 -16  -1   2   12.85    5.69
  16   1  -2   29.25    5.23
  16  -1  -2   11.84    4.45
  15   1  -2   14.28    4.86
 -15  -1   2    9.19    5.60
 -14   1   2   43.15    5.18
  14   1  -2   45.65    4.92
  14  -1  -2   47.75    4.36
 -13   1   2   32.53    4.73
  13  -1  -2   29.46    4.18
 -13  -1   2   35.09    5.38
  13   1  -2   15.10    4.57
 -13  -1   2   35.28    3.77
 -12   1   2   30.97    4.82
  12  -1  -2   31.81    3.91
 -11   1   2   44.81    5.28
  11   1  -2   38.26    4.69
  11  -1  -2   29.13    4.36
 -10   1   2  707.00    8.64
  10  -1  -2  641.72    7.78
  -9  -1   2   19.75    4.86
   9   1  -2   15.00    4.29
   8  -1  -2  366.84    6.13
  -8   1   2  396.33    6.53
  -7   1   2  454.41    6.84
  -7  -1   2  596.68    7.94
   6   1  -2  331.68    6.61
  -6  -1   2  393.75    7.12
   5   1  -2   41.84    3.99
  -5  -1   2   54.41    4.39
  -4   1   2  719.77    5.19
  -4  -1   2  765.19    7.29
  -3   1   2  234.79    6.38
   3  -1  -2  261.94    5.92
   2   1  -2   37.35    2.91
  -2  -1   2   38.60    2.96
   1  -1  -2  592.14    9.69
  -1   1   2  599.76    9.90
   0  -1  -2  325.76    5.38
   0   1   2  279.82    5.18
  -1  -1  -2  104.71    4.00
   1   1   2  105.53    4.00
   2   1   2   82.20    3.94
  -2  -1  -2   86.42    3.82
  -3   1  -2  -16.45   13.09
   3  -1   2   24.75   12.43
  -4  -1  -2  117.41    4.49
   4   1   2  106.67    4.59
  -4  -1  -2   86.57    4.23
   4  -1   2  101.73    5.49
  -4   1  -2   80.55    5.65
  -5  -1  -2   65.48    4.04
  -5   1  -2   55.19    3.84
   5  -1   2   55.55    3.71
  -5  -1  -2   61.65    4.02
  -6  -1  -2  201.07    5.13
   6   1   2  235.00    5.45
  -7   1  -2  195.07    4.66
   7  -1   2  241.78    5.05
   7  -1   2  171.60    3.92
  -7   1  -2  171.53    4.10
  -7  -1  -2  168.01    4.56
  -8   1  -2   37.16    3.84
   8  -1   2   35.82    3.84
   8  -1   2   41.46    3.24
  -8   1  -2   41.79    3.42
  -8  -1  -2   48.14    3.85
   8   1   2   36.59    3.65
   9   1   2    5.95    3.49
  -9  -1  -2   20.50    3.55
  -9  -1  -2   23.69    3.89
  -9   1  -2   21.32    3.38
   9  -1   2   27.77    3.30
   9  -1   2   28.82    3.96
   9   1   2   31.29    4.12
  -9   1  -2   31.76    3.69
 -10   1  -2   11.68    3.59
  10  -1   2   15.74    3.38
  10   1   2    3.84    3.62
 -10  -1  -2   10.49    3.64
 -11   1  -2   18.02    3.61
  11  -1   2    8.03    3.04
 -11  -1  -2    8.57    3.83
  11   1   2   11.57    3.75
  11  -1   2   14.60    3.63
  12  -1   2    7.55    2.87
 -12   1  -2    5.56    3.43
 -12  -1  -2    6.11    4.00
  12   1   2   12.13    3.76
  12   1   2   11.09    3.78
 -12   1  -2    8.52    3.44
 -12  -1  -2   19.68    3.90
  12  -1   2    9.04    3.66
 -13   1  -2   22.34    3.61
  13  -1   2   15.29    2.92
  13   1   2   26.02    4.13
 -13  -1  -2   28.71    4.25
 -13  -1  -2   16.19    4.41
  13   1   2   11.52    3.79
 -14  -1  -2  144.48    5.72
  14   1   2  143.67    5.32
 -15   1  -2   20.14    4.17
  15  -1   2   19.60    4.06
  15  -1   2    7.13    3.25
 -15  -1  -2   13.62    4.95
  15   1   2   12.14    3.85
 -15   1  -2   10.88    3.71
 -16  -1  -2   -1.35    4.96
  16   1   2   11.02    4.17
  16  -1   2   12.61    3.99
  16  -1   2   -7.72    3.25
 -16  -1  -2   13.42    4.64
  16   1   2    5.44    3.86
 -16   1  -2    1.67    3.64
 -17  -1  -2   28.54    4.80
  17   1   2    9.09    3.86
  18  -1   2    0.59    3.64
 -18  -1  -2    2.48    4.96
 -18   1  -2   -0.53    4.50
  18   1   2   -6.68    3.89
  18  -1   2    1.18    2.95
 -18   1  -2   -5.77    3.49
 -18  -1  -2   -0.66    4.16
  18   1   2   -0.12    3.42
  19  -1   2    7.20    3.81
  19   1   2   -3.18    3.96
 -19  -1  -2   -3.30    4.92
 -19   1  -2    4.45    4.61
 -19   1  -2    6.96    3.74
  19  -1   2    3.81    2.85
 -19  -1  -2    4.11    4.03
  19   1   2   -0.75    2.98
  20   1   2    1.93    3.97
  20  -1   2   10.41    3.79
 -20  -1  -2    8.44    5.29
 -20   1  -2   12.38    4.89
 -20   1  -2    3.10    3.62
  20  -1   2    1.60    2.47
 -20  -1  -2   -1.05    3.74
  20   1   2   -1.80    2.71
  21  -1   2    5.10    3.61
  21   1   2    1.55    3.96
 -21  -1  -2   11.29    5.38
 -21   1  -2   -5.21    4.64
 -21   1  -2   -1.27    3.58
  21  -1   2    3.35    2.37
 -21  -1  -2    4.54    3.67
  21   1   2    7.60    2.81
 -22   2   2    7.27    5.37
  22  -2  -2    4.99    3.83
 -22  -2   2   -4.20    5.95
  22   2  -2    0.87    2.80
 -22  -2   2    6.48    3.30
  22  -2  -2    1.74    2.19
 -22   2   2    7.43    2.49
  21  -2  -2    3.06    3.97
 -21  -2   2    2.03    5.93
  21   2  -2    8.39    4.46
 -21   2   2    8.06    2.62
  21   2  -2    6.56    2.89
 -21  -2   2    7.16    3.21
  21  -2  -2    4.41    2.18
  20  -2  -2   -3.60    4.02
 -20   2   2    9.80    5.33
 -20  -2   2    7.67    6.00
  20   2  -2    8.62    4.48
  20   2  -2    2.73    2.65
 -20  -2   2    2.20    3.28
  20  -2  -2    4.28    2.08
  19  -2  -2    3.75    4.12
 -19  -2   2    6.64    6.13
  19   2  -2   10.40    4.57
 -19   2   2    6.63    5.15
  19   2  -2    8.09    2.84
  19  -2  -2    3.19    2.08
  18  -2  -2    7.61    4.09
 -18  -2   2   28.15    6.45
  18   2  -2    9.67    4.77
 -18  -2   2   19.87    3.84
  18  -2  -2   10.85    2.62
 -18   2   2   19.85    3.28
  18   2  -2   12.72    3.25
 -18   2   2    7.57    5.02
  17   2  -2   25.21    3.90
 -17  -2   2   25.65    4.04
  17  -2  -2   19.55    2.98
 -17   2   2   19.70    5.16
  17   2  -2   38.31    5.42
  17  -2  -2    9.29    4.24
 -17   2   2   35.26    3.51
  16   2  -2   57.37    5.75
  16  -2  -2   41.32    4.60
 -16  -2   2   45.55    6.74
  15  -2  -2   23.39    4.11
 -15   2   2   29.26    5.05
  15   2  -2   33.23    4.29
  15   2  -2   26.80    5.47
 -14  -2   2   61.11    4.19
  14   2  -2   49.61    5.47
  14  -2  -2   40.74    4.10
 -14  -2   2   68.08    6.37
 -13   2   2    7.84    4.79
  13  -2  -2   11.93    3.66
  13   2  -2   13.16    3.99
 -13  -2   2   22.21    3.80
  13   2  -2   14.50    4.97
 -12  -2   2  149.30    4.98
 -12  -2   2  185.06    6.89
 -12   2   2  158.28    5.71
  11   2  -2   24.26    4.59
  11  -2  -2   24.59    3.92
 -11   2   2   35.45    4.77
  10   2  -2   11.35    4.31
 -10  -2   2   13.75    4.81
  -9  -2   2  287.93    6.86
  -9   2   2  229.18    5.97
  -8   2   2  190.56    5.16
   8  -2  -2  168.01    4.82
  -7   2   2  299.68    5.32
   7  -2  -2  316.22    5.32
   6   2  -2  160.48    5.10
  -6  -2   2  169.41    5.48
  -6   2   2  197.11    4.17
   6  -2  -2  205.16    4.07
   5  -2  -2  301.29    3.71
  -5   2   2  309.07    3.94
  -4  -2   2  697.52    7.19
   4   2  -2  529.09    6.61
   3  -2  -2  102.40    5.46
  -3   2   2  112.64    5.23
   3   2  -2  111.77    4.49
  -3  -2   2  127.09    4.43
  -2   2   2   73.01    3.27
   2   2  -2  143.64    4.42
   1  -2  -2  101.35    3.46
  -1   2   2  102.15    3.46
  -1  -2   2   91.00    3.35
   1   2  -2   80.63    3.41
   0   2   2  510.38    5.02
   0  -2  -2  513.97    4.93
   1   2   2 9999.00   19.90
  -1  -2  -2 9975.64   19.49
  -2  -2  -2  577.18    6.94
  -2  -2  -2  672.72    6.89
  -3  -2  -2  670.94    6.50
   3   2   2  593.30    6.22
   4   2   2  732.05    6.72
  -4  -2  -2  774.41    6.87
   5   2   2   17.50    3.51
  -5  -2  -2   37.41    3.75
   6  -2   2   58.44    5.95
   6   2   2   53.74    4.31
  -6  -2  -2   58.65    4.11
  -6   2  -2   34.96    6.57
  -7   2  -2   17.66    3.64
   7  -2   2   18.03    3.66
   7   2   2    9.83    3.87
  -7  -2  -2   17.75    3.85
  -7  -2  -2   16.81    4.27
  -7   2  -2    7.31    4.35
   7  -2   2    8.81    3.88
  -8  -2  -2  366.74    6.49
   8   2   2  362.14    6.59
   8  -2   2  317.48    5.32
   8   2   2  314.73    6.63
  -8  -2  -2  332.49    6.77
  -9  -2  -2  533.22    7.46
   9   2   2  536.15    7.59
 -10  -2  -2   15.98    4.69
  10   2   2   25.01    4.23
  10  -2   2    8.62    3.86
 -10   2  -2    4.99    3.38
 -10  -2  -2   26.71    4.20
  10   2   2   27.74    4.48
  10  -2   2    8.89    2.69
 -10   2  -2   12.13    3.09
 -11   2  -2  111.30    3.98
  11  -2   2  128.64    4.12
 -11  -2  -2  124.93    5.03
  11   2   2  110.26    4.84
 -11  -2  -2   93.40    5.01
 -12  -2  -2   21.56    4.38
  12   2   2    6.53    3.80
  12  -2   2    6.43    3.00
 -12   2  -2   17.27    3.32
 -12  -2  -2   17.33    4.13
  12   2   2   26.19    4.20
 -13  -2  -2   20.45    4.56
  13   2   2   -6.17    3.90
 -13   2  -2   16.12    3.44
  13  -2   2   18.62    3.25
 -14  -2  -2   21.61    4.64
  14   2   2   22.77    4.52
 -14   2  -2   12.83    4.00
  14  -2   2   10.09    3.09
 -15  -2  -2   12.07    4.55
  15   2   2   13.40    4.32
 -15   2  -2   11.54    3.81
  15  -2   2    4.22    2.90
 -15  -2  -2    6.47    4.75
 -15   2  -2    8.59    3.55
  15   2   2    8.10    4.00
  15  -2   2   11.93    3.61
 -16  -2  -2    2.73    4.43
  16   2   2    0.23    3.82
  16   2   2   13.99    4.19
  16  -2   2    4.15    3.51
 -16  -2  -2   15.90    5.07
 -16   2  -2    1.67    3.57
  16  -2   2   -1.42    2.60
 -17  -2  -2   31.16    4.77
  17   2   2   15.71    3.85
  17  -2   2   13.67    2.67
  17   2   2   21.91    4.29
  17  -2   2   27.83    3.79
 -17  -2  -2   12.06    5.29
 -17   2  -2   16.43    3.50
 -18  -2  -2    1.51    4.71
  18   2   2    9.38    3.61
 -18   2  -2   -1.64    3.30
  18   2   2   10.78    4.42
 -18   2  -2   -2.62    4.13
  18  -2   2    1.46    3.57
 -18  -2  -2    2.48    5.42
  19  -2   2   -2.48    2.22
 -19  -2  -2   -0.91    4.39
  19   2   2   -5.59    2.89
 -19   2  -2    2.38    3.15
  19  -2   2   11.74    3.69
 -19  -2  -2   10.40    5.53
 -19   2  -2   11.12    4.31
  19   2   2   -6.26    4.06
  20  -2   2    1.88    3.35
 -20  -2  -2    4.12    5.21
 -20   2  -2    4.92    4.38
  20   2   2    6.29    4.02
  20  -2   2   -0.58    2.26
 -20  -2  -2    9.63    4.24
  20   2   2    8.23    2.99
 -20   2  -2    1.88    2.97
  21  -2   2   -3.41    3.26
 -21  -2  -2   -2.75    5.23
 -21   2  -2    0.13    4.31
  21   2   2    6.15    4.12
  21  -2   2   -4.01    2.26
 -21  -2  -2    3.93    4.08
  21   2   2    1.26    2.67
 -21   2  -2   -7.44    2.92
  22  -3  -2    9.65    3.84
 -22  -3   2    3.71    5.93
  22   3  -2   -1.35    4.36
 -22   3   2    9.83    5.15
  22   3  -2    2.78    2.74
  22  -3  -2    0.93    1.99
 -22  -3   2   11.36    3.27
 -22   3   2    9.16    2.34
  21  -3  -2    4.88    3.89
 -21  -3   2   24.17    6.24
  21   3  -2    8.67    4.56
 -21   3   2   12.91    5.10
  21   3  -2   -2.08    2.52
  21  -3  -2    2.39    1.94
 -21  -3   2    2.22    3.25
 -21   3   2   11.07    2.40
  20  -3  -2   14.15    4.03
 -20  -3   2   22.58    6.31
  20   3  -2   10.59    4.57
  20  -3  -2    9.36    1.90
  20   3  -2    6.65    2.79
 -20  -3   2   16.85    3.66
 -20   3   2   15.33    2.59
 -20   3   2   -3.18    4.66
  19   3  -2   10.59    4.79
  19  -3  -2    3.47    3.68
  19  -3  -2    5.96    1.94
  19   3  -2   -1.07    2.60
 -19   3   2   10.52    2.72
 -19  -3   2    7.09    3.60
 -19   3   2    8.68    4.64
  18   3  -2   15.52    3.24
 -18  -3   2    6.53    6.29
  18   3  -2   12.86    4.82
  18  -3  -2   13.16    3.97
 -18   3   2    6.12    4.60
  17   3  -2   17.96    3.83
  17  -3  -2   14.57    4.04
 -17   3   2   24.39    4.99
 -17  -3   2   21.19    6.59
  17   3  -2    8.88    4.91
 -16  -3   2   30.59    4.00
  16  -3  -2    8.66    3.94
 -16   3   2   34.67    5.06
  16   3  -2   19.54    5.29
  15  -3  -2   29.25    4.15
  15   3  -2   51.12    4.76
 -15  -3   2   33.43    4.02
 -15  -3   2   49.90    7.11
  15   3  -2   26.53    5.57
 -15   3   2   51.99    5.34
  14  -3  -2   32.27    3.94
 -14   3   2   41.40    5.04
 -14  -3   2   42.52    4.32
  14   3  -2   32.81    4.43
  13  -3  -2   16.87    3.92
 -13   3   2   27.00    4.75
  13   3  -2   25.53    4.29
 -13  -3   2   35.41    4.23
 -12  -3   2  124.53    5.08
  12  -3  -2  105.98    4.56
 -12  -3   2  124.56    6.76
 -12   3   2  141.34    6.04
 -11  -3   2  141.80    5.24
 -11   3   2  151.85    5.33
 -11  -3   2  181.22    6.94
  11  -3  -2  144.21    5.51
 -10  -3   2   15.30    4.85
  10   3  -2    2.53    4.40
 -10   3   2   14.24    4.42
  10  -3  -2   10.56    3.49
   9   3  -2   31.57    4.38
   9  -3  -2   18.03    3.43
  -9   3   2   14.60    3.86
  -9  -3   2   35.42    4.72
   8  -3  -2   68.92    3.60
  -8   3   2   79.36    3.87
  -8  -3   2   83.52    5.25
   7  -3  -2  251.60    4.03
  -7   3   2  264.73    4.49
   6   3  -2   23.81    4.20
  -6  -3   2   53.50    4.88
  -5   3   2  279.84    4.23
  -5  -3   2  264.55    5.90
  -4   3   2   39.32    2.70
   4  -3  -2   34.96    2.40
   4   3  -2   32.20    4.00
  -4  -3   2   46.36    4.60
   3   3  -2   38.87    4.11
  -3   3   2   30.18    2.46
   3  -3  -2   28.66    2.43
   2   3  -2  112.81    4.47
  -2  -3   2  130.89    4.58
  -1  -3   2   42.97    3.63
   1  -3  -2   28.34    3.18
   1   3  -2   29.27    3.49
  -1   3   2   38.74    3.20
   0  -3   2  116.28    3.35
   0   3  -2   96.99    3.31
  -1  -3  -2  538.90    5.62
   1   3   2  539.21    5.66
   1  -3   2  576.17    4.37
  -1  -3  -2  564.53    6.65
  -2  -3  -2  105.20    4.16
   2   3   2  119.54    4.67
  -2  -3  -2   98.33    3.88
   2   3   2  105.77    4.33
  -3  -3  -2  130.27    4.64
   3   3   2  139.81    5.10
  -3  -3  -2  124.10    4.74
   3   3   2  117.20    4.82
  -4  -3  -2  429.78    6.66
   4   3   2  473.40    7.05
   4   3   2  431.75    7.01
  -4  -3  -2  480.62    7.13
   5   3   2  272.08    6.15
  -5  -3  -2  322.70    5.87
   5   3   2  259.64    6.33
  -5  -3  -2  291.42    6.50
  -6  -3  -2   29.00    4.73
   6   3   2   28.00    4.48
  -6  -3  -2   34.30    4.02
   6   3   2   31.06    4.10
  -7  -3  -2   30.00    4.10
  -7  -3  -2   11.88    4.33
   7   3   2   24.49    4.10
   7   3   2   27.85    4.17
   8  -3   2    5.14    5.66
  -8   3  -2    7.07    7.13
  -9   3  -2   23.03    4.72
   9  -3   2   22.17    3.73
  -9  -3  -2   29.20    4.04
   9   3   2   34.91    4.19
  -9  -3  -2   31.41    4.38
   9   3   2   35.51    4.48
  -9   3  -2   27.25    3.24
   9  -3   2   21.55    3.29
 -10   3  -2    7.15    3.45
  10  -3   2    9.14    2.84
 -10   3  -2   24.75    3.35
  10   3   2   12.82    3.90
 -10  -3  -2   27.09    4.09
 -10  -3  -2   26.80    4.47
  10   3   2   12.20    4.16
 -11   3  -2   29.86    3.23
  11  -3   2   30.53    2.99
 -11   3  -2   30.33    3.09
  11   3   2   43.68    4.59
  12  -3   2   27.11    3.60
 -12  -3  -2   32.48    4.92
  12   3   2   22.25    4.39
 -12   3  -2   19.39    3.16
  12   3   2   30.34    4.19
 -12   3  -2   14.98    3.44
  12  -3   2   16.89    2.77
 -13  -3  -2   10.42    4.66
  13   3   2   -0.97    4.15
 -13   3  -2   -1.71    3.16
  13  -3   2    5.59    2.55
 -13   3  -2    2.06    3.07
 -13  -3  -2    7.04    4.30
  13   3   2    6.81    3.85
  13  -3   2    0.60    3.17
 -14  -3  -2   14.46    4.71
  14   3   2    6.66    4.13
 -14   3  -2    9.77    3.10
  14  -3   2    7.21    2.85
 -14  -3  -2   17.05    4.64
  14   3   2   11.31    4.04
 -14   3  -2    5.12    3.10
  14  -3   2   16.66    3.38
 -15  -3  -2    6.95    4.56
  15   3   2    0.94    3.97
 -15   3  -2    3.95    3.22
  15  -3   2   -0.52    2.89
  15  -3   2    2.48    3.25
  15   3   2    5.19    4.02
 -15   3  -2    9.14    3.20
 -15  -3  -2    4.98    4.68
 -16  -3  -2    6.43    4.47
  16   3   2    4.91    3.72
 -16   3  -2   -1.57    3.36
  16  -3   2    3.25    2.61
 -16   3  -2    4.27    3.11
  16   3   2   13.05    4.17
  16  -3   2    6.07    3.24
 -17  -3  -2    7.09    4.41
  17   3   2   -0.77    3.37
  17  -3   2    0.80    2.30
 -17   3  -2    6.02    3.54
 -17   3  -2    8.60    3.41
  17   3   2    8.63    4.20
  17  -3   2    2.17    3.15
 -17  -3  -2   10.62    5.14
 -18  -3  -2   -5.06    4.00
  18   3   2    9.05    3.37
  18  -3   2   -2.13    2.01
 -18   3  -2    4.64    3.32
  18   3   2    7.75    4.16
  18  -3   2    8.27    3.24
 -18  -3  -2   -7.59    5.22
 -18   3  -2    1.99    3.55
 -19  -3  -2   -5.12    3.94
  19   3   2    6.06    3.10
 -19   3  -2   -2.63    3.10
  19  -3   2   -0.28    1.85
  19   3   2   -4.41    4.01
  19  -3   2    4.55    3.14
 -19  -3  -2   -4.28    5.25
 -19   3  -2   -3.37    3.71
 -20  -3  -2   12.85    4.27
  20   3   2    2.27    2.89
  20  -3   2    0.68    1.78
  20  -3   2    6.78    3.15
  20   3   2   -3.56    4.16
 -20  -3  -2    4.72    5.33
 -20   3  -2    2.75    4.08
 -20   3  -2   -1.44    2.96
 -21  -4   2    0.53    5.83
  21   4  -2    1.86    4.50
  21  -4  -2    7.20    3.63
  21  -4  -2    1.13    1.75
 -21   4   2    4.59    2.05
  21   4  -2    8.41    2.93
 -21  -4   2   -2.54    3.18
 -21   4   2    0.73    4.42
  20  -4  -2    8.82    1.64
  20   4  -2   14.42    3.02
 -20  -4   2   10.07    3.43
  20   4  -2   18.64    4.71
  20  -4  -2    8.78    3.60
 -20   4   2   15.12    4.49
 -19   4   2   13.87    4.53
  19  -4  -2    4.60    3.58
 -19   4   2   12.19    2.30
  19   4  -2    2.94    2.73
 -19  -4   2    6.59    3.41
 -19  -4   2   17.04    6.06
  19   4  -2    6.55    4.67
  18  -4  -2    6.88    3.40
 -18   4   2   11.13    4.45
 -18  -4   2   27.45    6.49
  18   4  -2    4.31    4.82
 -18  -4   2    9.80    3.73
  18   4  -2    4.25    3.05
 -18   4   2   21.09    2.57
  17  -4  -2   38.17    3.84
 -17   4   2   51.70    4.95
  17   4  -2   50.77    4.27
 -17  -4   2   54.09    4.40
  17   4  -2   28.56    5.19
  16  -4  -2   17.35    3.77
 -16   4   2   35.89    5.08
  16   4  -2   25.24    4.10
 -16  -4   2   13.14    3.56
 -16  -4   2   40.64    6.96
  16   4  -2   11.66    4.97
 -15   4   2   44.19    4.99
  15  -4  -2   32.76    3.93
  15   4  -2   19.51    5.35
  15   4  -2   43.45    4.56
 -15  -4   2   32.80    3.81
 -14  -4   2  204.60    8.82
  14   4  -2  128.96    5.73
 -13  -4   2   37.03    6.59
  13   4  -2   22.22    5.49
 -12  -4   2   91.73    4.87
  12   4  -2   86.29    5.22
  12   4  -2   59.33    5.84
  12  -4  -2   73.59    4.41
 -12  -4   2  114.74    6.95
 -12   4   2   90.32    4.95
 -11   4   2   23.08    4.11
  11  -4  -2   15.84    3.57
 -11  -4   2   27.97    5.81
  11   4  -2   27.50    5.17
  10  -4  -2   20.40    3.24
 -10   4   2   24.06    4.06
  10   4  -2   16.20    4.75
   9  -4  -2   22.41    2.97
  -9   4   2   21.99    3.33
   9   4  -2   18.30    4.45
  -9  -4   2   24.99    4.91
  -8  -4   2   19.79    4.62
   8   4  -2    8.54    4.33
   8  -4  -2   21.68    2.71
  -8   4   2   24.58    2.86
  -7  -4   2   93.96    5.09
  -7   4   2   93.76    4.08
   7  -4  -2  116.01    3.29
   6   4  -2   57.06    4.25
  -6  -4   2   94.27    4.80
   6  -4  -2   63.24    2.27
  -6   4   2   65.90    2.26
   5   4  -2    5.82    3.72
  -5  -4   2   14.40    4.02
  -5   4   2   14.83    2.44
   5  -4  -2   14.73    2.11
   4   4  -2   10.84    3.85
  -4  -4   2   25.81    4.01
  -3   4   2   10.81    2.45
   3  -4  -2    7.49    2.44
  -3  -4   2    8.81    3.86
   3   4  -2    1.08    3.73
   2   4  -2  232.77    5.69
  -2  -4   2  175.52    4.96
  -1   4   2   83.82    3.95
   1  -4  -2   64.30    3.32
  -1  -4   2   95.40    4.39
   1   4  -2   63.68    3.86
   0   4  -2   20.02    3.44
   0  -4   2   17.02    3.36
  -1  -4  -2  291.00    5.29
   1   4   2  281.95    5.75
   1  -4   2  290.43    4.28
  -1  -4  -2  296.96    5.78
   1   4   2  293.92    5.72
   2   4   2  154.68    5.07
  -2   4  -2  157.93    3.62
  -3  -4  -2   67.34    4.91
   3   4   2   65.26    4.99
  -3   4  -2   62.76    3.66
  -4  -4  -2 1738.28   10.68
  -4  -4  -2 1961.69   12.76
   5   4   2  158.55    6.08
  -5  -4  -2  119.70    5.69
   6   4   2  300.81    6.68
  -6  -4  -2  388.33    7.38
  -7  -4  -2   92.08    4.55
   7   4   2   90.27    5.10
  -7  -4  -2  132.97    5.65
   8   4   2  106.42    4.96
  -8  -4  -2   82.35    4.52
   8   4   2   94.62    5.09
  -8  -4  -2   64.74    5.00
   9   4   2   11.36    3.92
   9   4   2   51.64    4.75
 -10   4  -2   -1.54    8.82
  10  -4   2    8.54    5.88
 -10   4  -2   11.82    3.06
  10  -4   2   14.88    3.34
 -10  -4  -2    2.94    3.98
 -10  -4  -2    1.86    4.41
  10   4   2    7.69    4.19
  11  -4   2    6.50    3.31
 -11   4  -2   13.12    3.15
 -11  -4  -2   11.47    4.25
  11   4   2   10.59    3.95
 -11  -4  -2   -4.42    4.58
  11   4   2    0.21    4.28
 -11   4  -2   13.89    5.33
  11  -4   2    1.81    3.77
 -12  -4  -2   18.25    4.45
 -12   4  -2   18.05    2.95
  12   4   2   14.32    3.87
 -12  -4  -2   13.49    4.72
  12   4   2   10.80    4.45
 -12   4  -2    9.04    4.19
  12  -4   2    6.67    2.92
  13  -4   2   12.98    3.44
 -13  -4  -2    6.54    4.50
 -13   4  -2   17.09    2.94
  13   4   2   20.57    4.06
 -13  -4  -2   16.00    4.71
  13   4   2    9.31    4.18
 -13   4  -2    6.38    3.40
  13  -4   2   10.65    2.74
  14  -4   2   -6.24    2.34
  14   4   2    5.10    3.97
 -14   4  -2    6.71    2.82
 -14  -4  -2    9.55    4.70
 -14  -4  -2    4.77    4.27
  14   4   2   -2.41    3.84
 -14   4  -2    2.64    3.15
  15   4   2   -6.11    3.48
 -15  -4  -2   -0.76    3.94
  15  -4   2   -1.06    2.05
  15   4   2   -2.73    3.92
 -15   4  -2    4.49    2.67
  15  -4   2    3.66    3.02
 -15  -4  -2    2.13    4.79
 -16  -4  -2    6.20    4.02
  16   4   2   -5.51    3.28
  16  -4   2    2.19    2.08
 -16   4  -2    5.68    2.89
  16  -4   2   -7.02    2.91
  16   4   2   -3.15    3.92
 -16   4  -2   -0.32    2.72
 -16  -4  -2    9.97    4.96
 -17  -4  -2    4.11    3.88
  17   4   2   -2.23    2.97
  17  -4   2    2.26    2.15
 -17   4  -2    6.12    2.70
  17   4   2    0.75    4.08
 -17  -4  -2    2.24    5.15
  17  -4   2    4.77    2.98
 -17   4  -2    6.60    2.88
 -18  -4  -2    5.65    3.75
  18   4   2   12.12    3.28
 -18   4  -2    9.25    2.94
  18  -4   2    2.32    2.17
  18   4   2    9.28    4.18
  18  -4   2    2.19    2.93
 -18  -4  -2    3.65    5.17
 -18   4  -2    4.73    3.17
 -19  -4  -2   12.00    3.92
  19   4   2    3.07    2.76
  19  -4   2   -0.50    2.95
 -19  -4  -2   -3.55    5.08
 -19   4  -2    7.39    3.42
  19   4   2    2.68    4.16
  19  -4   2    3.67    2.01
 -19  -5   2    9.45    5.93
  19   5  -2    2.65    4.41
 -19   5   2    8.68    1.84
  19   5  -2    2.81    2.81
 -19  -5   2   17.14    3.62
  19  -5  -2   11.67    3.29
 -19   5   2    9.93    4.33
 -18  -5   2   17.56    3.70
  18   5  -2    3.69    3.24
 -18  -5   2    5.40    6.00
  18   5  -2    7.09    4.60
 -18   5   2   12.93    4.52
  18  -5  -2   11.08    3.21
  17  -5  -2   13.04    3.22
 -17   5   2   23.15    4.51
  17   5  -2    9.31    3.56
 -17  -5   2   15.95    6.30
  17   5  -2    7.79    4.71
  16  -5  -2    9.55    3.33
 -16   5   2   -1.62    4.17
  16   5  -2   30.70    4.11
 -16  -5   2   19.67    3.62
 -16  -5   2   30.85    6.57
  16   5  -2   26.39    5.14
 -15   5   2   20.11    4.96
  15  -5  -2   12.84    3.36
 -15  -5   2   17.88    6.45
  15   5  -2    7.78    4.85
 -15  -5   2   11.45    3.30
  15   5  -2   12.08    3.89
 -14  -5   2   29.87    3.87
  14   5  -2   20.66    4.31
 -14  -5   2   24.40    6.41
  14   5  -2   15.97    4.85
 -13   5   2   13.41    4.45
  13  -5  -2    6.26    3.25
  13   5  -2   -0.92    4.75
  13   5  -2    8.14    4.28
 -13  -5   2    9.79    3.78
  12   5  -2   36.96    4.86
 -12  -5   2   26.63    4.16
 -12   5   2   38.97    4.16
 -12  -5   2   30.55    6.18
  12   5  -2   12.75    5.01
  12  -5  -2   35.58    3.75
  11   5  -2   30.63    5.26
 -11   5   2   50.40    3.96
 -10   5   2   25.16    3.35
  10   5  -2   16.68    5.12
 -10   5   2   23.25    2.08
   9   5  -2   26.19    4.84
  -9   5   2   17.66    1.43
   9  -5  -2   16.27    1.56
   8  -5  -2   12.86    1.65
   8  -5  -2   15.32    3.15
   8   5  -2   14.86    4.46
  -8  -5   2   16.24    4.78
  -8   5   2   14.64    1.98
  -7  -5   2   13.04    4.56
   7   5  -2    6.93    4.31
   6   5  -2   30.35    4.19
   6  -5  -2   50.79    2.23
  -5  -5   2    7.11    4.02
   5   5  -2   16.88    3.85
  -5   5   2   18.29    2.63
   5  -5  -2   11.43    2.05
   4   5  -2   38.15    3.96
   4  -5  -2   43.56    2.74
   3  -5  -2   55.53    3.20
   3   5  -2   46.39    3.97
   2  -5  -2   24.07    3.11
  -2   5   2   29.26    3.33
   2   5  -2   23.00    3.63
  -2  -5   2   16.43    3.65
  -1  -5   2   21.51    3.99
   1   5  -2    8.47    3.46
   1  -5  -2   22.64    3.17
   1  -5  -2   10.46    3.20
   0  -5  -2   57.33    3.66
   0   5  -2   42.74    3.56
   0  -5   2   58.05    3.84
  -1  -5  -2   58.51    3.91
   1   5   2   51.06    4.18
  -1   5  -2   53.54    3.84
  -2  -5  -2  100.57    4.63
   2  -5   2  166.41    3.71
  -2   5  -2  105.57    3.94
   2   5   2  124.39    4.95
  -2  -5  -2  101.46    4.54
   2   5   2  102.03    4.80
  -3   5  -2  116.09    3.24
   3  -5   2  163.73    3.37
  -3  -5  -2  119.15    4.35
   3   5   2  132.34    5.15
   3   5   2  124.18    5.06
  -3  -5  -2  105.27    4.85
  -4   5  -2   10.16    2.26
   4  -5   2   13.50    3.00
   4   5   2    9.90    3.83
  -4  -5  -2   17.38    4.00
   4   5   2   18.13    4.08
  -5  -5  -2   15.08    3.96
   5   5   2    6.15    3.95
   5   5   2   22.36    3.97
  -5  -5  -2   17.52    3.68
  -6  -5  -2    8.05    3.99
   6   5   2   -2.38    3.90
   6   5   2   10.83    3.93
  -7  -5  -2   16.84    4.24
   7   5   2    1.58    3.99
  -7  -5  -2   13.84    3.80
  -8  -5  -2   16.46    4.67
   8   5   2    7.68    4.33
   8   5   2    7.24    4.00
  -8  -5  -2   15.86    4.01
  -9  -5  -2   31.85    4.94
   9   5   2   14.13    4.45
  -9  -5  -2   32.71    4.26
   9   5   2   21.15    4.14
  10   5   2    0.11    4.34
 -10  -5  -2    2.45    4.65
 -10  -5  -2   15.55    4.31
  10   5   2    8.45    3.97
 -11   5  -2    7.83    2.91
 -11  -5  -2    7.46    4.31
  11   5   2    9.29    4.25
 -11  -5  -2   13.75    4.34
  11   5   2   19.10    3.94
  12  -5   2   14.53    3.11
  12  -5   2    4.45    5.84
 -12  -5  -2   11.46    4.53
 -12   5  -2    9.44    2.89
  12   5   2   10.17    3.92
 -12  -5  -2    7.06    4.28
  12   5   2   18.20    4.15
 -13   5  -2   19.35    6.18
  13  -5   2   14.17    3.69
  13  -5   2   29.63    3.28
  13   5   2   29.06    4.20
 -13   5  -2   18.03    2.66
 -13  -5  -2   28.77    4.54
  13   5   2   22.69    4.10
  14   5   2    1.67    3.89
 -14  -5  -2    2.76    4.70
  14  -5   2    2.80    3.03
 -14   5  -2    0.82    2.51
 -14  -5  -2    3.68    3.97
  14   5   2   -3.38    3.35
 -14   5  -2   -7.23    4.12
  14  -5   2   -3.91    2.42
  15   5   2    5.35    4.04
  15  -5   2   -2.88    2.67
 -15   5  -2   -1.05    2.48
 -15  -5  -2    3.78    4.83
  15   5   2    7.56    3.36
 -15  -5  -2    6.55    3.82
  15  -5   2   -3.27    1.97
 -15   5  -2   12.15    3.40
  16  -5   2    0.95    1.94
 -16   5  -2   -2.16    2.52
  16  -5   2    0.96    2.78
 -16  -5  -2   -4.93    4.89
  16   5   2    1.41    2.98
 -16  -5  -2    8.02    3.73
 -16   5  -2    6.75    2.94
 -17   5  -2    5.66    2.97
  17  -5   2    3.00    1.79
  17   5   2   -2.00    2.90
 -17  -5  -2    0.73    3.64
  17   5   2    5.40    4.10
 -17  -5  -2   -2.55    5.05
  17  -5   2    1.99    2.78
 -17   5  -2    3.06    2.58
  18  -5   2    0.26    1.56
  18   5   2   -1.63    2.71
 -18  -5  -2   -1.81    3.55
 -18  -5  -2   -8.28    4.97
 -18   5  -2    4.09    2.75
 -18   6   2    3.61    4.03
  18  -6  -2    7.96    2.92
 -18  -6   2    5.03    3.36
  18   6  -2   11.82    3.32
 -18  -6   2    7.59    5.75
  18   6  -2    2.36    4.36
 -17   6   2    6.22    4.28
 -17  -6   2   11.35    3.49
  17   6  -2    8.08    3.47
 -17  -6   2    4.20    5.78
  17   6  -2   -5.41    4.23
  16  -6  -2    4.53    2.89
 -16   6   2    1.93    4.17
 -16  -6   2    7.47    3.20
  16   6  -2    9.60    3.62
  16   6  -2    0.79    4.63
  15   6  -2    8.11    3.72
 -15  -6   2    4.56    5.88
  15   6  -2   -1.68    4.53
  14  -6  -2    3.83    2.82
 -14   6   2    3.23    3.84
 -14  -6   2   13.72    5.92
  14   6  -2    7.58    4.75
 -14  -6   2   10.27    3.15
  13  -6  -2   19.24    3.14
 -13  -6   2    5.42    5.86
  13   6  -2   12.49    4.64
 -13   6   2   12.94    3.85
 -13  -6   2   14.89    3.45
  13   6  -2   11.64    4.02
 -12   6   2   10.86    3.25
  12  -6  -2   11.18    2.82
 -12  -6   2    7.85    3.43
  12   6  -2   21.67    4.31
  12   6  -2    9.04    4.66
 -12   6   2    7.63    0.64
 -11   6   2   17.12    3.13
  11  -6  -2   20.60    2.46
  11  -6  -2   10.40    0.99
  11   6  -2   13.40    4.76
 -11  -6   2   22.92    3.77
 -11   6   2   13.98    1.12
 -10   6   2   17.61    2.76
  10  -6  -2   18.13    2.23
  10  -6  -2   10.98    1.40
 -10   6   2   10.04    1.40
 -10  -6   2   15.67    3.75
 -10  -6   2   29.14    5.71
  10   6  -2   17.24    4.82
  -9   6   2   12.71    2.13
   9  -6  -2    6.43    1.68
  -9  -6   2   14.02    3.89
  -9  -6   2   22.16    5.23
   9   6  -2    7.82    4.79
   8  -6  -2   12.97    1.78
   8   6  -2   12.95    4.75
  -8  -6   2   13.02    4.98
   7   6  -2   29.86    4.74
   7  -6  -2   46.61    2.52
  -6  -6   2   28.23    4.53
   6  -6  -2   20.42    2.66
  -6   6   2   23.81    2.92
   6   6  -2   12.14    4.30
  -5  -6   2   13.15    4.07
   5   6  -2    6.67    4.06
   4   6  -2   14.06    3.92
  -4  -6   2   13.20    4.00
   4  -6  -2   14.94    2.82
  -4   6   2   16.16    3.19
   3   6  -2   -1.30    3.53
  -3  -6   2    5.14    3.65
   3  -6  -2    6.85    3.00
  -3   6   2    6.26    3.26
  -2  -6   2   50.68    4.08
   2   6  -2   26.43    3.49
   1   6  -2    4.32    3.42
  -1  -6   2    5.59    3.49
   1  -6  -2   18.93    3.18
   1  -6  -2   15.36    3.24
  -1   6   2   14.87    3.49
   0  -6   2   10.06    3.89
   0   6  -2    6.68    3.26
   0   6   2   -1.27    3.53
   0  -6  -2    3.95    3.21
   0  -6  -2    9.09    3.30
   0   6   2   10.79    3.54
  -1  -6  -2   21.64    3.60
  -1   6  -2   28.58    4.07
  -1  -6  -2   30.68    3.55
   1   6   2   24.08    3.92
  -2  -6  -2   10.39    3.62
   2   6   2   11.85    3.65
   2  -6   2   15.70    3.07
  -2   6  -2   15.45    3.27
  -2  -6  -2   12.25    3.18
   2   6   2   19.65    3.99
  -3  -6  -2    4.72    3.74
  -3  -6  -2    6.29    3.29
   3   6   2    1.40    3.52
   4   6   2    8.62    3.70
  -4  -6  -2   13.26    3.45
  -4   6  -2    9.93    2.54
  -4  -6  -2    9.30    3.87
   4   6   2   20.56    3.90
   5  -6   2   13.85    2.37
  -5   6  -2   15.02    2.24
  -5  -6  -2   21.85    3.66
   5   6   2   15.27    3.80
   5   6   2   19.91    4.09
  -5  -6  -2   14.78    4.08
   6   6   2    0.92    3.83
  -6  -6  -2   17.58    3.72
   6   6   2   12.93    4.19
  -6  -6  -2   23.23    4.30
   7   6   2    8.21    3.91
  -7  -6  -2   18.83    4.31
   7   6   2   12.87    4.15
  -8  -6  -2    9.16    3.93
   8   6   2    9.97    3.93
   8   6   2   13.54    4.12
  -8  -6  -2   14.08    4.41
   9   6   2   25.83    4.15
  -9  -6  -2   51.16    4.60
  -9  -6  -2   52.52    4.95
   9   6   2   50.63    4.50
  10   6   2    2.75    3.78
 -10  -6  -2    0.60    4.07
 -10  -6  -2   13.84    4.26
  10   6   2   15.42    3.98
  11   6   2    5.53    3.51
 -11  -6  -2    4.81    3.91
 -11  -6  -2    2.55    4.22
  11   6   2    4.54    3.73
  12   6   2    3.51    3.24
 -12  -6  -2   12.45    3.81
 -12   6  -2    3.87    2.50
 -12  -6  -2    0.11    4.31
  13  -6   2   -1.81    2.53
  13   6   2    5.90    3.19
 -13  -6  -2   -0.53    3.56
  13   6   2   -3.11    3.60
 -13   6  -2    4.44    2.43
 -13  -6  -2    0.13    4.48
  14  -6   2   -7.15    4.87
  14  -6   2    4.66    2.64
  14   6   2    8.97    4.05
 -14   6  -2    0.64    2.15
 -14  -6  -2    2.30    4.63
  14   6   2    3.73    2.99
 -14  -6  -2    0.69    3.42
 -15   6  -2    9.81    6.45
  15  -6   2    1.57    2.99
  15   6   2    4.88    3.05
 -15  -6  -2   -2.72    3.36
  15   6   2    9.39    4.16
 -15   6  -2    0.15    2.30
  15  -6   2   -3.11    2.79
 -16   6  -2   -1.06    4.38
  16   6   2    2.20    4.06
 -16   6  -2   -3.87    2.27
 -16  -6  -2   -7.01    4.89
  16  -6   2    6.48    2.76
 -16  -6  -2    1.31    3.33
  15  -7  -2    9.47    2.54
 -15   7   2   -0.73    3.38
 -15  -7   2   11.40    5.56
  15   7  -2   -3.04    4.07
 -15  -7   2    3.24    2.72
  15   7  -2    0.77    3.46
 -14   7   2    0.75    0.32
 -14   7   2   -0.12    3.29
  14  -7  -2    0.16    2.65
 -14  -7   2    9.73    5.36
  14   7  -2    3.56    4.33
 -14  -7   2   -0.11    2.54
  13  -7  -2   -2.09    2.51
 -13   7   2   -0.72    2.98
 -13   7   2    3.77    0.77
  13  -7  -2    0.31    0.59
 -13  -7   2   14.31    5.40
  13   7  -2    4.76    4.25
 -13  -7   2    2.25    2.86
  13   7  -2   -4.38    3.44
 -12   7   2    4.08    2.61
 -12  -7   2    6.53    3.14
  12   7  -2    9.46    3.90
  12  -7  -2   -2.16    2.17
 -12  -7   2    8.28    5.45
  12   7  -2    7.37    4.32
  12  -7  -2    1.82    0.96
 -11  -7   2    8.31    3.17
 -11  -7   2    1.22    5.35
  11   7  -2   -1.33    4.17
  11  -7  -2   -0.83    1.09
  11  -7  -2    5.33    1.87
 -10   7   2    6.59    1.90
 -10  -7   2   12.29    3.42
  10  -7  -2    4.13    1.50
  10   7  -2   -1.93    4.27
  -9  -7   2    4.48    5.04
   9   7  -2    2.89    4.32
  -9   7   2   13.52    2.11
   9  -7  -2    9.58    1.82
  -9  -7   2   13.27    3.42
  -8  -7   2   20.33    4.90
   8   7  -2    5.97    4.22
  -8   7   2   14.17    2.32
   8  -7  -2    4.42    1.94
   7   7  -2    8.88    4.32
  -7  -7   2   13.48    4.64
   7  -7  -2    7.67    2.26
  -7   7   2    7.52    2.43
   6   7  -2    4.14    4.25
  -6  -7   2   10.49    4.43
   6  -7  -2    6.58    2.46
  -6   7   2   14.42    2.70
   5   7  -2   -0.10    3.99
   5  -7  -2   12.06    2.68
  -5   7   2   13.23    2.73
  -5  -7   2   19.12    4.22
   4   7  -2   -1.56    3.88
  -4  -7   2   -1.04    3.83
  -4   7   2    5.64    2.87
   3   7  -2    1.67    3.86
  -3  -7   2   16.30    3.89
   3  -7  -2   18.94    3.16
  -3   7   2   21.70    3.18
   3  -7  -2   22.68    3.03
   2   7  -2   24.70    3.80
  -2   7   2   44.62    4.19
  -1  -7   2   14.78    3.67
   1   7  -2    6.77    3.41
  -1   7   2   12.18    3.63
   0  -7  -2   15.20    3.48
   0   7   2    6.32    3.15
   0  -7  -2    9.01    3.22
   0   7   2    0.40    3.55
   0  -7   2    5.80    3.30
   0   7  -2    5.18    3.15
  -1  -7  -2   15.78    3.44
   1   7   2    5.71    3.23
  -1  -7  -2   17.04    3.11
   1   7   2   16.36    3.91
   1  -7   2    8.91    3.57
  -1   7  -2    3.39    3.12
   2   7   2    0.59    3.23
  -2  -7  -2    3.55    3.24
  -2  -7  -2    9.68    3.15
   2   7   2    1.90    3.37
   2  -7   2   11.90    2.95
  -2   7  -2    8.67    3.12
  -3   7  -2    7.61    2.93
   3  -7   2    7.33    2.88
   3   7   2   14.00    3.46
  -3  -7  -2   -0.74    3.26
   3   7   2    1.93    3.48
  -3  -7  -2    9.12    3.23
   4   7   2    3.57    3.26
  -4  -7  -2    7.38    3.47
   4  -7   2    7.50    2.70
  -4   7  -2    1.45    2.79
   4   7   2    6.47    3.47
   5   7   2    8.90    3.27
  -5  -7  -2   -1.43    3.30
   5   7   2   12.84    3.74
  -5  -7  -2    6.50    3.27
  -5   7  -2    4.79    2.60
   6  -7   2   13.93    1.88
  -6   7  -2   23.62    2.47
   6   7   2   25.20    3.70
  -6  -7  -2   11.96    3.66
   6   7   2   18.68    3.79
   7   7   2    1.32    3.43
  -7  -7  -2    6.98    3.65
  -7  -7  -2   13.40    3.72
   7   7   2   10.97    3.74
   8   7   2   11.10    3.48
  -8  -7  -2   12.73    3.76
   8   7   2    6.39    3.81
   9   7   2   14.75    3.84
   9   7   2   14.33    3.43
  -9  -7  -2   25.10    3.92
  10   7   2    2.96    3.65
 -10  -7  -2   -8.51    4.01
  10   7   2    5.26    3.10
 -10  -7  -2   -0.12    3.25
  11   7   2   -0.52    3.61
 -11  -7  -2    7.80    4.26
  11   7   2    3.84    2.90
 -11  -7  -2    2.56    3.29
  12   7   2    8.04    3.78
 -12  -7  -2    1.64    4.37
  12   7   2    5.64    2.86
 -12  -7  -2    0.13    3.07
  13   7   2    0.12    3.59
 -13   7  -2    1.61    2.23
 -13  -7  -2    7.72    4.65
  13   7   2   -3.67    2.56
 -13  -7  -2   10.57    3.40
  14   7   2   -7.07    3.56
 -14   7  -2   -0.32    2.18
 -14  -7  -2   -2.85    4.67
 -14  -7  -2    3.27    3.36
  14   7   2    1.19    2.66
  12   8  -2    3.80    3.64
 -12  -8   2    7.41    2.78
 -12  -8   2   15.91    5.23
  12   8  -2    4.67    4.17
  12  -8  -2    1.11    1.20
  12  -8  -2    3.29    1.70
 -11  -8   2   14.46    5.23
  11   8  -2    0.29    4.04
  11   8  -2    8.18    3.80
 -11   8   2    2.71    1.59
 -11  -8   2    5.87    2.93
  11  -8  -2    2.10    1.43
 -10  -8   2    4.74    5.04
  10   8  -2    3.43    4.08
  10  -8  -2    9.70    1.67
 -10   8   2    8.39    1.84
 -10  -8   2   11.55    3.10
  -9  -8   2   18.64    5.12
   9   8  -2    1.16    3.95
   9  -8  -2    8.91    1.85
  -9  -8   2   16.80    3.27
  -9   8   2   11.84    1.99
   8   8  -2    9.92    4.02
   8  -8  -2    3.21    1.91
  -8   8   2    8.33    2.13
  -8  -8   2    0.58    3.00
   7   8  -2   -2.06    3.86
  -7  -8   2    8.22    4.48
   7  -8  -2    6.05    2.04
  -7   8   2    7.21    2.24
   6   8  -2    3.09    3.92
  -6  -8   2   16.19    4.42
  -6   8   2    7.13    2.31
   6  -8  -2    3.28    2.13
   5   8  -2    4.36    3.91
  -5  -8   2    3.71    4.07
   5  -8  -2    1.20    2.21
  -5   8   2    4.98    2.36
   4  -8  -2    1.90    2.42
   4   8  -2   -2.39    3.68
   4  -8  -2    4.70    2.36
  -4   8   2    4.86    2.39
  -4  -8   2    5.65    3.75
   3  -8  -2    6.05    2.61
  -3   8   2    7.38    3.58
   3   8  -2    4.40    3.64
  -3   8   2    5.19    2.49
   3  -8  -2   -3.00    2.35
  -3  -8   2   -4.59    3.43
   2  -8  -2    4.87    2.89
  -2   8   2   -6.44    3.13
  -2   8   2    2.41    2.55
   2  -8  -2    5.10    2.55
  -2  -8   2    3.52    3.44
   2   8  -2    9.67    3.58
   1  -8  -2    0.73    2.65
  -1   8   2   -0.69    2.62
   1  -8  -2    3.60    2.60
   1   8  -2    5.73    3.35
  -1  -8   2    6.84    3.19
   0   8  -2   -0.14    2.91
   0  -8   2    6.65    3.26
   0   8   2   -1.35    2.58
   0  -8  -2   -2.41    2.55
   0  -8  -2    0.45    2.71
  -1   8  -2    5.31    2.86
   1  -8   2    3.22    2.98
   1   8   2    5.61    2.76
  -1  -8  -2    3.08    2.66
  -1  -8  -2   10.91    2.91
   1   8   2    8.42    3.26
  -2   8  -2    2.85    2.81
   2  -8   2    8.12    3.26
   2   8   2   -1.01    2.67
  -2  -8  -2    3.34    2.63
   2   8   2    2.80    3.25
  -2  -8  -2    9.31    3.01
  -3   8  -2    1.59    2.70
   3   8   2   -1.22    2.62
  -3  -8  -2    7.19    2.76
  -3  -8  -2    1.89    2.83
   3   8   2    8.59    3.35
   4  -8   2    7.17    2.80
  -4   8  -2   -0.80    3.11
   4   8   2    2.94    3.38
  -4  -8  -2    2.96    3.01
   4   8   2    4.57    2.72
  -4  -8  -2   -3.32    2.64
  -5   8  -2    2.13    2.73
   5   8   2    3.23    3.35
  -5  -8  -2   11.29    3.19
   5   8   2    4.88    2.82
  -5  -8  -2    1.47    2.78
   5  -8   2    4.25    2.56
  -6  -8  -2   -6.97    3.03
   6   8   2   -2.76    3.22
  -6  -8  -2   -1.98    2.87
   6   8   2    4.94    2.87
   6  -8   2    3.11    2.13
  -6   8  -2    0.90    2.44
   7  -8   2    5.45    1.73
  -7  -8  -2    3.05    3.50
   7   8   2    8.27    3.51
  -7  -8  -2    1.26    2.91
   7   8   2    6.08    2.81
  -8  -8  -2   -2.03    3.65
   8   8   2   -2.97    3.36
   8   8   2    2.79    2.71
  -8   8  -2    0.95    1.69
  -9  -8  -2    1.24    2.88
   9   8   2    1.40    2.69
  -9  -8  -2    4.59    3.79
   9   8   2    2.00    3.44
 -10  -8  -2   -3.09    2.76
  10   8   2    2.37    2.79
  10   8   2   -0.32    3.41
 -10  -8  -2    8.83    4.02
 -11  -8  -2    3.33    2.94
  11   8   2    2.13    2.77
  11   8   2    6.72    3.61
 -11  -8  -2    0.51    4.12
  -7   9   2   10.57    2.27
   7  -9  -2    5.57    1.82
  -7  -9   2    7.95    2.92
  -7  -9   2   14.42    4.68
   7   9  -2    3.36    3.76
  -6   9   2    2.82    2.32
   6  -9  -2    1.13    1.87
   6   9  -2    6.70    3.69
  -6  -9   2    5.65    4.22
   5  -9  -2    3.33    2.28
   5   9  -2   -1.03    3.46
  -5  -9   2    0.10    3.82
  -5   9   2    7.19    2.38
   5  -9  -2    0.60    1.88
   4  -9  -2   -1.89    2.36
  -4   9   2    9.18    3.50
   4   9  -2   10.87    3.60
  -4   9   2    1.73    2.37
   4  -9  -2    1.50    1.96
  -4  -9   2   10.69    3.84
  -3   9   2    8.13    3.02
   3   9  -2    5.16    3.56
   3  -9  -2    4.04    2.58
  -3   9   2    5.09    2.55
   3  -9  -2    1.72    1.97
  -3  -9   2    1.07    3.45
  -2   9   2    8.81    3.08
   2  -9  -2    6.02    2.41
   2   9  -2    0.49    3.41
  -2   9   2    0.41    2.64
   2  -9  -2    0.24    2.01
  -2  -9   2    2.27    3.30
  -1   9   2    4.28    3.38
  -1  -9   2    8.08    3.21
  -1   9   2    4.35    2.73
   1  -9  -2   -1.09    2.14
   1  -9  -2    3.67    2.61
   1   9  -2    6.73    3.24
   0   9  -2   -5.50    2.99
   0   9   2    2.77    2.78
   0  -9  -2    1.60    2.28
   0   9   2    4.47    3.28
   0  -9  -2    6.16    2.80
   1  -9   2    8.86    3.08
  -1   9  -2    3.83    2.90
   1   9   2    7.37    2.93
  -1  -9  -2    8.48    2.45
   1   9   2   12.59    3.23
  -1  -9  -2   13.40    2.91
   2  -9   2    2.28    2.82
  -2   9  -2    2.75    2.68
   2   9   2    0.68    2.79
  -2  -9  -2   -1.43    2.27
   2   9   2    0.72    3.05
  -3   9  -2    1.77    2.52
   3  -9   2    4.60    2.94
  -3  -9  -2    1.00    2.35
   3   9   2    6.56    2.87
  -3  -9  -2    4.07    2.71
   3   9   2    2.62    3.11
  -4   9  -2   -4.23    2.46
   4  -9   2    6.72    2.56
  -4  -9  -2   -2.50    2.35
   4   9   2    3.01    2.81
   4   9   2    2.19    3.16
  -4  -9  -2    7.63    2.94
   5  -9   2    7.75    2.66
  -5   9  -2    4.33    2.43
  -5  -9  -2    0.66    3.03
   5   9   2    0.63    3.19
  -5  -9  -2    0.87    2.35
   5   9   2    2.75    2.83
  -6   9  -2   -0.04    2.29
  -6  -9  -2    3.62    2.42
   6   9   2    7.08    2.90
   6  -9   2    6.15    2.37
   6   9   2    2.53    3.20
  -6  -9  -2   10.34    3.23
 -23   0   3   13.93    2.82
  23   0  -3    5.11    4.01
 -23   0   3    9.50    5.48
 -22   0   3    6.05    5.45
  22   0  -3   -7.28    3.93
 -21   0   3   19.76    5.78
 -21   0   3    8.51    3.17
  21   0  -3    1.61    4.20
 -20   0   3   13.32    5.54
  20   0  -3    0.97    4.29
  19   0  -3    2.06    4.23
 -19   0   3   14.10    5.65
 -18   0   3   25.74    5.68
  18   0  -3    6.06    4.23
  17   0  -3   40.09    4.83
 -17   0   3   38.58    5.76
  16   0  -3   15.60    4.34
 -16   0   3    9.01    5.36
 -15   0   3   17.83    5.55
  15   0  -3    6.83    4.22
  14   0  -3   35.69    4.73
 -14   0   3   21.86    5.44
 -13   0   3   24.35    5.46
  13   0  -3   27.77    4.57
 -12   0   3   20.01    5.66
  12   0  -3   20.91    4.51
 -11   0   3   44.67    5.93
  11   0  -3   22.40    5.23
  10   0  -3   49.42    4.75
 -10   0   3   65.59    5.36
  -9   0   3   73.44    6.15
   9   0  -3   41.40    5.38
  -8   0   3   66.51    5.35
   8   0  -3   38.14    4.76
  -7   0   3  286.51    6.78
   7   0  -3  260.08    6.29
  -6   0   3   90.37    4.61
   6   0  -3   58.23    4.14
  -5   0   3   25.68    3.64
   5   0  -3   29.73    3.59
  -4   0   3   27.03    3.14
   4   0  -3   18.09    3.04
   3   0  -3   15.66    4.48
  -3   0   3   28.81    4.27
  -1   0  -3   54.61   23.22
   1   0   3   69.58   23.35
   2   0   3   20.55    9.73
  -2   0  -3   40.01    9.75
  -3   0  -3   14.24    5.94
   3   0   3   14.46    6.04
  -4   0  -3   47.55    4.59
   4   0   3   60.13    4.55
  -5   0  -3   79.72    4.03
   5   0   3   92.90    4.11
  -6   0  -3   48.92    4.21
   6   0   3   45.34    4.07
   7   0   3    4.19    3.53
  -7   0  -3    3.90    3.73
   7   0   3    5.22    4.50
  -7   0  -3    2.44    4.27
   8   0   3    5.87    3.42
  -8   0  -3    2.99    3.64
  -9   0  -3    2.07    3.73
   9   0   3    4.12    3.57
  10   0   3   18.91    3.97
 -10   0  -3   24.28    4.03
 -10   0  -3   33.26    4.36
  10   0   3   29.33    4.52
 -11   0  -3   24.21    4.28
  11   0   3   18.87    3.62
 -12   0  -3    3.75    4.09
  12   0   3   -5.05    3.15
 -12   0  -3    5.48    3.99
  12   0   3    4.47    4.61
 -13   0  -3  -11.51    4.05
  13   0   3   -4.10    3.15
  14   0   3   28.36    4.49
 -14   0  -3   23.59    4.36
 -14   0  -3   16.66    4.58
  14   0   3    4.90    3.37
  15   0   3   11.16    4.45
  15   0   3   -5.87    3.38
 -15   0  -3   -6.94    4.82
 -15   0  -3   10.75    4.20
  16   0   3    1.20    3.42
 -16   0  -3   20.43    4.96
  16   0   3   22.27    4.53
 -16   0  -3    5.10    4.27
  17   0   3    9.66    2.90
 -17   0  -3    2.57    3.79
 -17   0  -3    5.55    3.97
  17   0   3    8.59    4.34
  18   0   3    6.66    2.90
 -18   0  -3    4.09    3.52
  18   0   3    9.20    4.18
 -18   0  -3    1.89    3.86
  19   0   3    1.81    2.74
 -19   0  -3    3.12    3.47
  19   0   3   -4.60    4.01
 -19   0  -3   11.37    3.94
 -20   0  -3    0.30    3.32
  20   0   3    1.34    2.58
  20   0   3   -2.92    3.76
 -21   0  -3   -3.20    3.37
 -21   0  -3   -4.84    3.72
  21   0   3    2.46    3.78
 -23   1   3    0.16    5.12
  23   1  -3    9.48    2.96
 -23   1   3    3.46    2.57
  23   1  -3    8.26    4.46
 -23  -1   3   -3.21    5.73
  23  -1  -3   -2.98    3.64
 -22   1   3   23.39    5.41
 -22   1   3   15.86    3.02
  22   1  -3    7.83    2.94
 -22  -1   3    4.82    3.12
  22   1  -3    8.05    4.20
 -22  -1   3    8.84    5.78
  22  -1  -3   -0.29    3.88
 -21   1   3    7.18    5.29
 -21  -1   3    8.82    3.30
 -21   1   3   12.49    3.10
  21   1  -3   10.76    4.33
 -21  -1   3   12.69    5.73
  21  -1  -3    8.93    4.01
 -20   1   3   15.28    5.38
 -20  -1   3   18.96    5.84
  20  -1  -3    4.17    3.99
 -20   1   3   14.76    3.34
  20   1  -3   10.80    4.47
  19  -1  -3   15.52    4.09
 -19  -1   3   29.69    5.83
 -19   1   3   29.53    5.40
  19   1  -3    7.31    4.51
  18   1  -3    4.96    4.46
 -18  -1   3   22.50    5.93
 -18   1   3   21.08    5.46
  18  -1  -3   24.86    4.38
 -17  -1   3    9.64    5.73
  17  -1  -3    8.65    4.11
 -17   1   3   15.11    5.58
  17   1  -3   10.05    4.59
  16   1  -3   39.57    4.97
  16  -1  -3   31.39    4.65
 -16   1   3   48.18    5.97
 -16  -1   3   55.96    5.92
 -15   1   3   78.19    5.99
 -15  -1   3   68.91    6.25
  15  -1  -3   45.63    4.89
 -14   1   3   29.62    5.57
  14  -1  -3   32.49    4.59
  14   1  -3   22.86    4.62
 -13   1   3  230.01    7.97
 -13  -1   3  160.98    6.86
  12   1  -3   24.27    4.59
 -12  -1   3   26.66    5.34
  11  -1  -3   58.31    4.64
 -11   1   3   55.66    5.54
  11   1  -3   34.97    4.78
 -10   1   3  176.19    6.66
 -10  -1   3  190.09    7.66
  -9   1   3  140.87    5.84
   9  -1  -3  125.41    5.19
  -9  -1   3  149.64    6.31
  -8  -1   3  350.61    7.97
   8   1  -3  285.01    6.96
  -7  -1   3  179.84    6.38
   7   1  -3  163.67    5.98
   6  -1  -3  758.89    7.06
  -6  -1   3  922.19    9.57
  -5  -1   3  300.47    5.90
   5  -1  -3  279.69    4.53
  -5   1   3  297.36    4.70
  -4   1   3  113.10    6.07
   4  -1  -3  108.11    5.68
   3   1  -3   65.95    3.51
  -3  -1   3   75.19    3.46
  -2  -1   3  187.70    4.72
   2   1  -3  186.15    4.64
   1  -1  -3  153.56   18.00
  -1   1   3  106.46   17.84
   0   1   3 1357.29   12.97
   0  -1  -3 1314.12   12.93
  -1  -1  -3   36.22    5.75
   1   1   3   23.10    5.80
  -2  -1  -3   25.09    4.30
   2   1   3    6.46    4.35
   3   1   3    1.84    4.17
  -3  -1  -3    7.00    4.12
  -4   1  -3  289.58   10.80
   4  -1   3  308.25   10.24
  -5   1  -3  194.01    6.91
   5   1   3  186.71    4.71
  -5  -1  -3  212.32    4.94
   5  -1   3  213.97    6.71
   6   1   3   17.07    4.86
  -6  -1  -3   14.71    4.67
   6   1   3   33.08    4.04
   6  -1   3   34.65    4.63
  -6   1  -3   35.86    4.88
  -7  -1  -3  280.76    6.28
   7   1   3  319.96    6.89
  -8   1  -3  124.86    4.75
   8  -1   3  132.48    4.70
  -8  -1  -3  149.00    5.56
   8   1   3  113.45    5.16
  -8  -1  -3  142.84    5.52
   8   1   3  164.33    6.03
  -9  -1  -3   12.86    4.23
  -9   1  -3    8.12    3.67
   9  -1   3    7.26    3.28
   9   1   3   11.88    3.87
   9  -1   3    1.44    4.22
  -9   1  -3    5.87    3.81
  10  -1   3   37.03    4.39
 -10  -1  -3   41.01    4.26
 -10   1  -3   30.13    4.03
 -10  -1  -3   38.05    4.64
  10   1   3   24.01    3.59
  10  -1   3   16.82    3.10
 -10   1  -3   32.82    3.64
 -11  -1  -3   49.69    4.63
  11   1   3   54.46    5.22
 -11   1  -3   53.36    4.41
  11  -1   3   42.69    3.36
 -11   1  -3   40.90    3.54
 -11  -1  -3   45.91    4.17
  11   1   3   41.00    3.68
 -12   1  -3    3.85    4.02
 -12  -1  -3    8.42    4.03
  12  -1   3    2.91    4.25
  12  -1   3   -0.55    3.13
 -12  -1  -3    4.80    3.73
 -12   1  -3    1.77    3.49
  12   1   3    6.87    3.18
  13   1   3   12.40    4.37
 -13   1  -3    7.78    3.99
 -13  -1  -3    4.55    4.03
  13  -1   3    2.05    3.64
 -13   1  -3   -0.07    4.00
  13   1   3    0.72    3.23
 -13  -1  -3   -3.49    3.73
 -14   1  -3   -2.57    3.72
  14   1   3    2.14    4.34
  14  -1   3    6.98    4.45
 -14  -1  -3   10.82    4.15
  14  -1   3    1.79    3.59
 -14   1  -3    0.89    4.50
  14   1   3    4.85    3.41
 -14  -1  -3   -6.74    3.90
  15  -1   3   26.86    4.24
 -15   1  -3   32.81    4.25
  15   1   3   29.65    4.75
 -15  -1  -3   22.08    4.47
 -15   1  -3   21.55    4.72
  15  -1   3   10.62    3.51
 -15  -1  -3   28.46    4.29
  15   1   3   16.00    3.93
  16  -1   3   13.08    4.29
 -16  -1  -3    3.52    4.14
  16   1   3    4.75    3.63
  16  -1   3    9.25    3.13
 -16   1  -3    1.47    4.31
 -16   1  -3    8.35    4.03
 -16  -1  -3    5.31    4.34
 -17  -1  -3    5.18    3.98
  17   1   3   -0.12    3.42
 -17   1  -3    0.26    4.00
  17  -1   3   -0.76    2.62
  17  -1   3    6.22    4.03
 -17   1  -3    7.57    3.89
  17   1   3    7.98    4.39
 -17  -1  -3    4.01    4.08
 -18  -1  -3   15.41    4.12
  18   1   3   -2.21    3.11
  18  -1   3    1.22    2.40
 -18   1  -3   -0.62    3.58
  18  -1   3   11.80    4.15
  18   1   3    9.47    4.27
 -18  -1  -3    6.99    4.10
 -18   1  -3   -2.43    3.59
 -19  -1  -3    7.17    4.11
  19   1   3    5.88    3.21
  19  -1   3    2.46    2.31
 -19   1  -3    1.36    3.36
  19   1   3   12.78    4.13
 -19  -1  -3   14.31    4.14
 -19   1  -3   12.15    3.78
  19  -1   3   11.60    4.01
  20  -1   3    2.00    2.15
 -20  -1  -3   -0.62    3.75
  20   1   3    2.81    2.95
 -20   1  -3   -2.22    3.08
  20   1   3   -6.97    3.69
  20  -1   3    1.70    3.70
 -20  -1  -3    7.18    4.08
 -20   1  -3    0.93    3.48
  21  -1   3   -4.75    2.04
 -21  -1  -3    3.15    3.89
  21   1   3    5.03    2.63
 -21   1  -3   -0.75    3.10
  21  -1   3    7.39    3.70
 -21  -1  -3    8.01    4.10
 -21   1  -3    9.68    3.65
  21   1   3   13.09    3.88
 -22   2   3   -4.68    5.03
  22  -2  -3    2.53    3.68
  22   2  -3    8.75    3.02
 -22  -2   3    6.01    3.16
  22   2  -3    7.99    4.51
 -22  -2   3   17.91    6.06
  21  -2  -3   15.70    3.87
 -21   2   3    9.03    5.01
 -21  -2   3   12.34    3.31
  21   2  -3    5.16    3.15
 -21   2   3   10.13    2.90
  21   2  -3    7.85    4.56
 -21  -2   3   12.25    5.99
 -20   2   3    6.59    5.27
  20  -2  -3    3.59    3.57
 -20  -2   3   10.40    3.47
  20   2  -3    8.60    4.49
 -20  -2   3    2.58    5.74
 -19   2   3   17.23    5.42
  19  -2  -3   18.56    4.09
 -19  -2   3   28.74    3.96
  19   2  -3   24.52    4.86
 -19  -2   3   40.34    6.16
 -18  -2   3   16.16    5.88
  18  -2  -3   -3.97    3.73
 -18   2   3   22.63    5.63
 -18  -2   3   14.20    4.01
  18   2  -3   12.18    4.85
 -17   2   3   20.50    5.54
  17  -2  -3   23.75    4.49
  17   2  -3   19.51    5.13
  16   2  -3   26.89    4.97
  16  -2  -3   31.42    4.77
 -16  -2   3   36.26    6.32
 -16   2   3   45.71    5.87
 -15  -2   3   35.32    6.14
  15   2  -3   22.34    4.76
  15  -2  -3   21.92    4.54
 -15   2   3   26.05    6.20
 -14   2   3  120.12    7.21
 -14  -2   3   92.89    6.41
  14  -2  -3  104.50    5.82
  13   2  -3   15.22    4.43
 -13  -2   3    4.47    5.32
  12   2  -3   17.42    4.42
 -12  -2   3   31.40    5.46
 -11   2   3   25.95    4.95
  11   2  -3   19.96    4.43
  11  -2  -3   22.49    4.46
 -11  -2   3   28.33    5.18
  10   2  -3   27.07    4.69
  10  -2  -3   18.33    4.13
 -10   2   3   11.72    4.63
 -10  -2   3   22.86    5.18
   9   2  -3   20.52    5.10
  -9  -2   3   25.80    6.07
  -8  -2   3  290.24    7.26
   8  -2  -3  315.45    5.45
  -8   2   3  299.82    5.86
  -7   2   3   97.21    3.97
   7  -2  -3   67.51    3.99
  -6   2   3  461.22    5.62
   6  -2  -3  398.65    4.92
   5  -2  -3   44.27    7.41
  -5   2   3   24.25    8.86
  -4  -2   3  153.88    5.00
   4   2  -3  117.66    4.80
   3   2  -3   13.96    3.53
  -3  -2   3   18.47    3.64
  -2   2   3  243.76    6.74
   2  -2  -3  249.45    6.81
  -2  -2   3  216.78    4.39
   2   2  -3  211.25    4.67
  -1   2   3  275.75    5.47
   1  -2  -3  284.35    5.52
  -1  -2   3  265.44    4.65
   0   2   3 5680.59   15.23
   0  -2  -3 6406.00   16.31
   1   2   3    7.06    4.14
  -1  -2  -3    8.85    4.09
  -2  -2  -3  370.63    5.65
   2   2   3  335.27    5.48
   3   2   3  168.30    4.68
  -3  -2  -3  172.10    4.68
  -4  -2  -3   10.36    4.11
   4   2   3   10.96    4.09
  -5  -2  -3  125.92    5.32
   5   2   3  157.42    5.93
  -5  -2  -3  121.76    5.37
  -6  -2  -3   18.06    4.25
   6   2   3   32.06    4.85
  -6   2  -3   41.73   10.95
  -6  -2  -3   27.98    4.54
   6   2   3   25.96    4.41
   7   2   3   22.50    3.96
  -7  -2  -3   27.42    4.35
   7  -2   3   18.25    5.80
  -7   2  -3    5.13    6.51
  -8   2  -3    6.96    5.52
   8  -2   3   20.39    4.68
  -9  -2  -3  141.50    5.84
   9   2   3  138.92    6.18
  -9   2  -3  107.00    5.12
  -9  -2  -3  122.94    4.93
 -10   2  -3   45.88    4.16
 -10   2  -3   47.16    3.85
  10  -2   3   40.35    3.60
 -10  -2  -3   39.51    4.07
  10   2   3   40.76    3.83
 -11   2  -3   -4.24    3.71
  11  -2   3   -2.82    3.13
  12  -2   3   44.80    3.40
 -12   2  -3   42.87    3.86
 -12   2  -3   45.01    4.24
  12   2   3   35.85    4.21
 -12  -2  -3   47.04    4.29
 -13  -2  -3   15.74    4.27
  13   2   3    8.70    4.01
 -13  -2  -3   16.58    4.41
 -13   2  -3    3.54    3.50
  13  -2   3   12.45    2.99
 -13   2  -3   21.73    4.07
  13  -2   3   13.87    4.24
  13   2   3   13.74    4.48
 -14  -2  -3   13.82    4.58
  14   2   3    5.49    4.29
  14  -2   3    6.93    3.21
 -14   2  -3    8.32    3.50
 -15   2  -3    6.81    3.60
  15  -2   3    9.14    3.41
 -15   2  -3   12.43    3.82
 -16  -2  -3    3.23    4.38
  16   2   3    9.03    4.07
 -16  -2  -3    7.54    4.13
 -16   2  -3   12.17    3.70
  16   2   3    2.85    4.37
 -16   2  -3   -1.36    3.78
  16  -2   3    4.94    3.15
  16  -2   3   14.21    3.90
 -17  -2  -3    9.81    4.66
  17   2   3   10.03    3.75
  17  -2   3    4.70    3.94
  17   2   3   13.68    4.60
 -17   2  -3    1.85    3.72
 -17  -2  -3    3.45    4.34
 -17   2  -3   13.01    4.18
  17  -2   3   -3.99    2.74
 -18   2  -3   29.58    4.33
  18  -2   3   16.40    2.86
  18   2   3   30.98    3.97
 -19  -2  -3    0.27    4.16
  19   2   3    0.13    2.96
  19  -2   3    1.77    2.30
 -19   2  -3    9.74    3.73
  19   2   3    6.55    4.16
  19  -2   3    8.58    3.87
 -19  -2  -3    7.90    4.25
 -19   2  -3    9.77    3.51
 -20  -2  -3   10.01    4.18
  20   2   3    2.05    2.83
 -20  -2  -3   10.15    4.26
 -20   2  -3   -0.60    3.27
  20  -2   3    0.38    3.66
  20   2   3    2.66    3.94
 -20   2  -3   13.41    3.61
  20  -2   3    1.35    2.03
 -21  -2  -3    8.27    4.24
  21  -2   3   -2.85    3.53
 -21   2  -3    1.23    3.31
  21   2   3    6.79    3.76
  22  -3  -3    5.59    3.45
 -22   3   3    9.05    4.93
  22   3  -3   12.33    3.21
 -22  -3   3   17.87    3.23
 -22  -3   3    9.61    6.10
  22   3  -3   18.66    4.83
 -21   3   3    6.34    5.07
  21  -3  -3   11.62    3.45
  21   3  -3    5.37    3.21
 -21  -3   3    2.90    3.27
  21   3  -3   -3.07    4.46
 -21  -3   3    8.53    6.07
 -20   3   3   18.34    5.40
  20  -3  -3    7.93    3.60
  20   3  -3    3.05    3.32
 -20  -3   3   17.18    3.61
  20   3  -3    5.12    4.57
 -20  -3   3   27.00    6.22
  19  -3  -3   11.20    3.62
 -19   3   3   -2.51    5.08
  19   3  -3    4.99    4.61
 -19  -3   3   14.72    6.12
  18  -3  -3   20.73    4.19
 -18  -3   3   21.63    3.96
  18   3  -3   20.13    4.97
 -18  -3   3   11.15    5.87
 -17   3   3   37.00    5.86
  17  -3  -3   35.65    4.60
 -17  -3   3   37.05    4.65
 -17  -3   3   47.06    6.58
  17   3  -3   22.48    5.27
 -16   3   3  193.56    8.19
  16  -3  -3  129.21    5.81
 -15   3   3  170.04    7.02
  15  -3  -3  181.05    6.73
 -15  -3   3  214.59    8.13
  14   3  -3   16.50    4.74
 -14  -3   3   10.67    5.89
  13   3  -3    9.22    4.69
 -13  -3   3   26.74    5.61
 -13   3   3    2.90    5.33
  13  -3  -3   20.72    4.14
  12   3  -3   14.88    4.51
 -12  -3   3   12.45    5.41
  11  -3  -3  159.06    5.17
 -11   3   3  161.41    6.07
  10  -3  -3  232.03    5.23
 -10   3   3  228.51    5.65
 -10  -3   3  220.05    7.04
  -9   3   3   84.03    4.33
   9  -3  -3   95.56    4.09
   8  -3  -3   70.94    3.38
  -8   3   3   60.10    3.76
  -8  -3   3   74.74    5.98
   7   3  -3   98.50    6.15
  -7  -3   3  125.94    6.34
  -6  -3   3   77.15    5.38
   6   3  -3   49.08    4.90
  -5  -3   3   79.04    5.60
   5  -3  -3   71.05    9.06
  -5   3   3   86.58    8.14
  -4   3   3   35.57    4.59
   4  -3  -3   26.59    4.69
   4   3  -3   35.76    4.56
  -3   3   3  382.83    5.05
  -3  -3   3  493.48    7.15
  -2   3   3  434.52    5.39
  -2  -3   3  468.75    6.04
  -1   3   3  467.66    5.50
   1  -3  -3  434.25    5.29
  -1  -3   3  459.98    5.76
   0  -3  -3   36.63    3.48
   0   3   3   49.35    3.70
  -1  -3  -3  201.03    5.11
  -1   3  -3  210.15    6.64
  -2  -3  -3   24.29    4.66
   2   3   3   10.54    4.56
  -3  -3  -3  118.06    5.51
  -3  -3  -3  168.53    5.41
   3   3   3  119.02    5.10
  -4  -3  -3   98.93    5.23
   4   3   3  128.93    6.03
  -5  -3  -3  164.12    5.52
   5   3   3  194.83    6.21
  -5  -3  -3  170.73    5.15
   6   3   3   40.94    5.13
  -6  -3  -3   27.31    3.91
   6   3   3   28.40    3.85
   7   3   3   20.80    4.77
  -7  -3  -3   19.78    4.43
  -7  -3  -3   11.08    3.71
   7   3   3   15.89    3.61
  -8  -3  -3  105.38    5.47
   8   3   3  121.20    6.06
   8  -3   3   40.24    9.15
  -8   3  -3   44.02   11.98
   8   3   3   62.31    4.35
  -8  -3  -3   53.47    4.16
  -9  -3  -3    6.14    3.84
   9   3   3   11.12    4.07
  -9   3  -3    8.92    7.09
   9  -3   3   12.42    5.50
 -10   3  -3    5.18    4.49
  10   3   3    9.70    4.65
 -10  -3  -3    5.14    4.35
  10   3   3    8.49    4.19
 -10   3  -3    2.58    5.38
  10  -3   3    1.97    4.17
  11  -3   3   24.50    4.30
  11   3   3   24.44    4.78
 -11  -3  -3   17.34    4.38
 -11   3  -3   11.84    3.75
 -11  -3  -3   11.89    4.69
  11   3   3    8.50    4.24
  11  -3   3    0.23    3.39
 -11   3  -3   11.27    4.41
  12  -3   3   11.07    3.88
 -12  -3  -3   12.63    4.40
 -12  -3  -3    7.33    4.67
  12   3   3    8.97    4.40
  12  -3   3    8.46    3.07
 -12   3  -3    1.91    3.82
  13  -3   3    0.36    3.86
 -13   3  -3   14.68    3.69
  13   3   3   10.22    4.47
 -13  -3  -3    8.36    4.29
 -13   3  -3    6.70    3.69
  13  -3   3    6.46    3.15
 -13  -3  -3   17.55    4.81
  13   3   3    4.34    4.26
  14  -3   3    9.44    4.00
 -14   3  -3    6.29    3.69
 -14  -3  -3    8.88    4.27
  14   3   3   12.63    4.48
 -14   3  -3    3.85    3.62
  14  -3   3   -1.48    2.77
 -14  -3  -3    9.88    4.77
  14   3   3   -9.69    3.89
 -15   3  -3    3.52    3.19
  15  -3   3    9.02    4.09
  15   3   3    4.36    4.35
 -15  -3  -3    6.26    4.08
 -15   3  -3    9.65    3.39
  15  -3   3    8.86    2.63
 -15  -3  -3    7.91    4.64
  15   3   3    5.42    3.88
  16  -3   3    6.82    4.00
 -16   3  -3    2.31    3.20
  16   3   3    2.92    4.15
 -16  -3  -3    2.21    4.02
  16  -3   3    1.74    2.46
 -16   3  -3   -5.75    3.09
 -16  -3  -3   14.82    4.58
  16   3   3    7.12    3.52
  17  -3   3    7.61    3.64
 -17  -3  -3   -0.53    4.41
  17   3   3    5.90    3.37
 -17   3  -3    8.62    3.14
  17  -3   3   -2.43    2.29
  17   3   3    5.50    4.09
 -17  -3  -3    7.74    4.04
 -17   3  -3    5.76    3.36
 -18  -3  -3   10.98    4.37
  18   3   3    3.92    3.27
 -18   3  -3    1.61    3.22
  18  -3   3    1.41    2.55
  18  -3   3    6.25    3.61
  18   3   3    3.63    4.03
 -18   3  -3    3.06    3.24
 -18  -3  -3   13.51    4.33
 -19  -3  -3    5.89    4.23
  19   3   3   10.32    3.27
 -19   3  -3    0.81    3.39
  19  -3   3    1.27    2.31
 -19  -3  -3   -1.76    4.25
  19  -3   3    4.57    3.60
  19   3   3   -4.60    3.84
 -19   3  -3   -1.93    3.20
 -20  -3  -3   -2.32    3.91
  20   3   3    2.79    2.88
  20  -3   3    7.10    3.49
 -20  -3  -3    8.55    4.37
 -20   3  -3    4.68    3.20
  20   3   3    4.73    3.92
 -20   3  -3    6.07    3.65
  20  -3   3   -3.23    1.97
  21  -4  -3    9.63    3.42
 -21   4   3   10.16    4.93
  21   4  -3   -7.62    3.10
 -21  -4   3    2.69    3.05
  21   4  -3   10.79    4.82
  20  -4  -3    8.34    3.49
 -20   4   3    8.59    4.92
 -20  -4   3    5.52    3.22
  20   4  -3   11.62    3.55
 -20  -4   3   11.00    6.22
  20   4  -3    2.72    4.60
 -19   4   3    0.72    4.89
  19  -4  -3    1.32    3.53
 -19  -4   3   11.23    3.42
  19   4  -3   10.07    4.85
 -19  -4   3    4.61    6.20
 -18   4   3   16.55    5.60
  18  -4  -3   17.44    3.86
 -18  -4   3   10.27    3.65
  18   4  -3   18.72    5.10
 -18  -4   3   28.16    6.44
  17  -4  -3    8.95    3.93
 -17   4   3    3.96    5.66
  17   4  -3    6.66    4.94
 -17  -4   3   28.51    6.39
 -17  -4   3   25.98    4.23
 -16   4   3   44.44    5.49
 -16  -4   3   45.53    4.73
  16   4  -3   26.62    5.35
 -16  -4   3   54.32    6.62
  16  -4  -3   56.21    4.97
  15  -4  -3   30.98    4.33
  15   4  -3   22.20    5.45
 -14   4   3   90.39    6.06
  14  -4  -3   88.14    5.09
 -14  -4   3  113.00    6.89
  13   4  -3   17.54    4.78
  13  -4  -3   16.98    4.01
 -13  -4   3   19.11    5.68
 -13   4   3   11.39    4.84
 -12  -4   3   12.30    5.35
  12   4  -3   14.19    4.62
 -12   4   3   14.43    4.50
  12  -4  -3   20.54    3.89
  11   4  -3   24.43    4.67
  11  -4  -3   29.32    3.63
 -11   4   3   23.15    3.91
  10  -4  -3   44.84    3.51
 -10  -4   3   43.87    5.52
  10   4  -3   25.68    4.49
 -10   4   3   35.85    3.97
  -9  -4   3   13.79    5.13
   9   4  -3    6.32    4.47
  -8  -4   3  133.70    6.17
  -8   4   3  147.57    5.26
   8  -4  -3  176.42    4.51
  -7  -4   3  223.51    6.95
  -7   4   3  204.37    6.43
   6   4  -3   64.04    5.53
  -6  -4   3   80.28    6.58
   6  -4  -3   81.75    3.99
  -6   4   3   87.34    3.88
  -5  -4   3  149.55    5.77
  -5   4   3   81.40    3.17
  -4  -4   3  147.91    6.10
  -4   4   3  125.00    3.62
   4  -4  -3  120.27    3.53
   3   4  -3  161.01    5.59
  -3  -4   3  225.55    5.86
  -2   4   3   29.34    3.45
   2  -4  -3   28.83    3.18
  -1   4   3   17.98    4.08
   1  -4  -3    7.53    3.73
  -1  -4   3   19.29    3.66
   1   4  -3   19.29    3.81
   0   4   3  737.63    7.64
   0  -4   3  870.43    6.99
  -1  -4  -3   23.75    4.14
   1   4   3   22.62    4.18
  -1   4  -3   14.71    3.14
   2   4   3  491.48    7.10
  -2  -4  -3  561.77    7.53
  -2   4  -3  501.50    7.02
   3   4   3 1943.32   14.27
  -3  -4  -3 2009.79   12.28
  -4  -4  -3  107.94    5.53
   4   4   3  111.93    5.96
  -4  -4  -3  102.95    5.07
  -5  -4  -3   84.81    4.95
   5   4   3  117.99    5.71
  -6  -4  -3   17.32    4.34
   6   4   3   19.54    4.80
  -6  -4  -3   22.21    4.03
   6   4   3   12.66    4.07
   7   4   3   24.57    5.28
  -7  -4  -3   44.24    4.96
   7   4   3   46.52    4.61
  -7  -4  -3   43.44    4.53
  -8  -4  -3   92.65    5.07
   8   4   3   67.62    5.70
  -8  -4  -3  100.90    5.45
   8   4   3   89.49    5.40
  -9  -4  -3   20.77    4.56
   9   4   3   17.11    4.88
  -9  -4  -3   26.02    5.03
   9   4   3   17.64    4.57
 -10  -4  -3   95.77    5.42
 -10  -4  -3  128.99    6.43
 -11  -4  -3  112.29    5.74
  11   4   3  128.33    6.12
 -11   4  -3   64.41    8.73
  11  -4   3   64.55    6.65
 -11  -4  -3  167.00    7.04
  11   4   3   72.57    5.45
 -12   4  -3    7.95    3.72
  12  -4   3    4.83    4.02
  12   4   3   13.89    4.78
 -12  -4  -3   16.72    4.64
 -12  -4  -3    6.27    4.92
  12   4   3    2.56    4.21
 -12   4  -3    5.37    5.77
  12  -4   3    6.60    4.43
  13  -4   3    6.47    3.34
 -13   4  -3   -0.84    4.57
  14  -4   3    4.33    3.64
 -14   4  -3    5.90    3.36
 -14  -4  -3   -3.96    4.01
  14   4   3   13.88    4.46
 -14  -4  -3    4.75    4.36
  14   4   3    4.34    3.91
  14  -4   3    0.75    2.71
 -14   4  -3    6.62    3.74
 -15  -4  -3    5.15    4.15
  15  -4   3    7.42    3.63
 -15   4  -3   -2.84    3.19
  15   4   3   -3.20    4.18
  15  -4   3   -1.07    2.59
 -15   4  -3   -3.13    3.26
  16  -4   3   12.91    3.91
  16   4   3   16.28    4.12
 -16  -4  -3   -0.87    3.87
 -16   4  -3    7.42    2.97
 -16   4  -3    4.78    3.37
  16  -4   3    4.88    2.34
 -16  -4  -3   10.83    4.04
  16   4   3    3.68    3.57
  17  -4   3   -4.06    3.63
  17   4   3   -4.95    3.83
 -17   4  -3    8.22    3.05
 -17  -4  -3    7.94    4.07
  17  -4   3   -0.39    2.08
 -17  -4  -3    2.03    3.96
  17   4   3   -1.03    3.20
  18  -4   3    9.20    3.62
 -18   4  -3    7.21    3.06
  18  -4   3    4.02    1.97
 -18  -4  -3    6.68    4.01
  18   4   3    1.06    3.03
 -18  -4  -3   12.16    4.26
 -18   4  -3    1.82    2.98
  18   4   3   -3.36    3.80
 -19   4  -3   13.08    3.18
  19  -4   3    3.40    2.06
 -19  -4  -3    4.31    3.98
  19   4   3   -0.16    2.93
 -19   4  -3    2.86    3.04
 -19  -4  -3    2.41    4.15
  19  -4   3    7.32    3.31
  19   4   3    7.41    3.94
  19  -5  -3    3.84    3.36
 -19   5   3   11.01    5.51
 -19  -5   3    7.59    3.33
  19   5  -3    7.02    3.51
 -19  -5   3   13.93    6.32
  19   5  -3  -10.73    4.45
 -18   5   3   27.03    4.92
  18  -5  -3   12.57    3.67
 -18  -5   3   13.93    3.60
  18   5  -3    2.33    4.93
 -18  -5   3   27.11    6.45
  17  -5  -3   16.91    4.33
 -17   5   3   21.19    4.92
  17   5  -3   -3.22    4.67
 -17  -5   3   22.15    6.26
 -17  -5   3   23.32    3.94
 -16   5   3   40.35    5.39
  16  -5  -3   39.11    3.82
 -16  -5   3   42.06    4.49
  16   5  -3    9.72    5.06
 -16  -5   3   39.82    6.47
  15   5  -3   11.31    5.08
 -15  -5   3   14.01    5.94
 -15   5   3   13.87    4.72
  15  -5  -3    2.62    3.82
  14   5  -3   13.93    5.18
 -14   5   3    8.87    4.70
  14  -5  -3   16.25    3.64
 -14  -5   3   22.43    5.95
  13   5  -3   24.07    5.01
 -13   5   3    8.23    4.18
  13  -5  -3   19.06    3.90
 -13  -5   3   18.67    5.50
  12   5  -3    8.61    4.62
 -12   5   3   16.49    4.08
  12  -5  -3   10.28    3.23
 -12  -5   3   11.59    5.09
  11  -5  -3   20.22    3.05
 -11   5   3   19.26    3.71
 -11  -5   3   17.71    5.22
  11   5  -3    7.11    4.41
  10   5  -3   23.36    4.58
 -10  -5   3   38.58    5.21
  -9   5   3    8.28    3.69
   9  -5  -3   11.64    4.85
  -9  -5   3    6.28    4.91
   9   5  -3    8.77    4.37
   8   5  -3   34.78    4.69
   8  -5  -3   42.86    3.02
   7  -5  -3   23.05    2.35
  -7   5   3   32.90    2.76
   7   5  -3   25.21    4.58
  -7  -5   3   42.23    5.08
   6  -5  -3   21.88    2.38
  -6   5   3   22.19    2.54
  -6  -5   3   34.35    4.84
   6   5  -3   15.77    4.22
   5  -5  -3   12.06    2.36
  -5   5   3   21.30    2.90
  -5  -5   3   25.27    5.44
   5   5  -3   10.67    4.24
  -4   5   3   11.51    3.17
   4   5  -3    8.12    4.66
   3   5  -3   44.59    4.25
  -3   5   3   47.25    3.31
   3  -5  -3   32.75    3.31
  -2  -5   3   33.93    4.21
   2   5  -3   23.09    4.39
   2  -5  -3   17.28    3.06
  -2   5   3   28.98    3.13
  -1  -5   3   27.36    4.22
   1   5  -3   10.13    3.85
   1  -5  -3   19.06    3.13
  -1   5   3   22.38    3.20
   0   5   3  258.56    5.05
   0  -5  -3  257.64    5.00
   0  -5   3  314.68    5.43
  -1  -5  -3   27.60    3.49
  -1   5  -3   35.71    3.72
  -1  -5  -3   43.43    4.40
   1   5   3   41.53    4.04
  -2  -5  -3   21.72    3.58
   2   5   3   23.61    4.11
  -3  -5  -3    2.96    3.72
  -3   5  -3    9.47    3.27
   3  -5   3   15.28    3.78
  -3  -5  -3   16.17    4.06
   3   5   3   17.28    4.62
  -4  -5  -3   19.03    4.14
   4   5   3   39.84    4.95
   4   5   3   41.03    4.65
  -4  -5  -3   41.09    4.31
   5   5   3   26.73    4.44
   5   5   3    6.72    4.46
   6   5   3   31.25    5.29
  -6  -5  -3   28.28    4.84
   6   5   3   28.74    4.55
  -7  -5  -3  164.77    5.60
   7   5   3  148.02    6.35
  -8  -5  -3  149.95    5.79
   8   5   3  105.13    5.65
  -8  -5  -3  115.37    6.00
   9   5   3   14.88    4.79
  -9  -5  -3   14.63    4.56
  -9  -5  -3   12.37    4.80
   9   5   3   22.97    4.93
 -10  -5  -3   97.09    5.38
  10   5   3  114.21    5.88
 -11  -5  -3    1.97    4.45
  11   5   3   13.98    4.54
  11   5   3    2.62    4.60
 -11  -5  -3   10.39    4.41
  12  -5   3    0.78    8.96
 -12  -5  -3    5.71    4.11
  12   5   3   12.86    4.50
 -12  -5  -3   15.09    4.46
  12   5   3    8.00    4.28
 -13   5  -3   14.79    8.89
 -13   5  -3   -4.60    3.22
 -13  -5  -3   10.79    4.07
  13   5   3   14.60    4.42
 -13  -5  -3    9.43    4.26
  13   5   3    5.38    4.06
  13  -5   3    7.48    5.43
 -14   5  -3    5.54    3.04
  14  -5   3    8.44    3.48
  14   5   3    3.38    4.22
 -14  -5  -3   17.55    4.07
 -14  -5  -3   17.46    4.35
  14   5   3    7.62    3.79
 -14   5  -3   -1.97    5.89
  14  -5   3    1.26    3.66
 -15   5  -3   -3.57    2.92
  15  -5   3    1.33    3.32
  15   5   3   -3.25    3.94
 -15  -5  -3    2.08    3.81
 -15  -5  -3   -1.14    3.81
  15   5   3    9.01    3.74
 -15   5  -3    5.05    4.72
  15  -5   3   -3.81    2.70
 -16   5  -3    1.08    2.85
  16  -5   3    7.90    3.32
  16   5   3   -8.22    3.65
 -16  -5  -3    1.87    3.88
 -16  -5  -3    5.92    3.86
  16   5   3    2.22    3.33
  16  -5   3    4.77    2.42
 -16   5  -3   -9.02    3.56
  17  -5   3    7.40    3.39
 -17  -5  -3    9.57    3.98
 -17   5  -3    6.80    2.73
  17   5   3   11.99    3.96
 -17  -5  -3   -2.98    3.80
  17   5   3    6.26    3.21
 -17   5  -3    5.32    3.23
  17  -5   3   -0.77    2.16
 -18  -5  -3   -5.51    3.86
  18   5   3    3.31    3.04
 -18   5  -3    5.65    3.03
  18  -5   3   -0.08    3.48
 -18  -5  -3    7.91    4.05
 -18   5  -3   -3.51    2.65
  18   5   3   -0.38    3.61
  18  -5   3    0.27    2.05
 -18   6   3   14.61    4.75
  18  -6  -3   -3.36    3.66
 -18  -6   3    7.71    3.29
 -18  -6   3   -0.35    5.86
  18   6  -3    2.36    4.51
 -17   6   3    7.41    4.54
  17  -6  -3    6.04    3.15
 -17  -6   3    3.89    5.91
  17   6  -3    5.58    4.64
 -17  -6   3    7.78    3.48
  16  -6  -3    6.91    3.51
 -16   6   3   16.53    4.30
  16   6  -3    2.45    4.56
 -16  -6   3    9.43    5.91
 -16  -6   3   11.14    3.53
  15  -6  -3    2.60    3.09
 -15   6   3   17.93    4.31
 -15  -6   3   11.07    3.65
  15   6  -3    3.94    4.69
 -15  -6   3   25.50    6.02
  14   6  -3   16.55    4.72
 -14  -6   3   10.19    5.75
  14  -6  -3   10.53    3.33
 -14   6   3    9.49    3.76
  13   6  -3    3.97    4.73
 -13   6   3   10.17    3.69
  13  -6  -3    3.38    2.81
 -13  -6   3   -5.43    5.32
  12  -6  -3   29.88    2.96
 -12  -6   3   41.54    5.68
  12   6  -3   16.74    4.91
 -12   6   3   29.61    3.53
 -11   6   3   10.87    2.51
  11  -6  -3   14.36    2.58
 -11   6   3   13.65    3.61
 -11  -6   3    5.44    5.00
  11   6  -3    2.32    4.52
  11  -6  -3    8.46    3.67
  10   6  -3    7.52    4.47
 -10  -6   3   18.84    5.03
  10  -6  -3   10.16    3.77
 -10   6   3    6.90    2.28
  10  -6  -3    4.18    2.29
  -9   6   3   13.31    2.19
  -9  -6   3   15.38    4.72
   9   6  -3    6.33    4.16
   9  -6  -3    7.21    2.22
  -8  -6   3    7.70    4.76
   8   6  -3    0.98    4.22
  -7   6   3   31.28    2.98
   7  -6  -3   30.65    2.65
   7   6  -3   19.79    4.39
  -7  -6   3   40.22    5.19
   6  -6  -3   24.05    3.06
  -6   6   3   24.71    2.84
   6   6  -3    7.34    4.31
  -6  -6   3   30.25    4.88
   5  -6  -3   14.77    2.87
  -5   6   3   16.56    2.71
   5   6  -3   11.23    4.04
  -5  -6   3   18.87    4.47
  -4  -6   3   21.86    4.95
   4   6  -3   16.65    4.17
   4  -6  -3   17.63    2.77
  -4   6   3   14.18    2.87
  -3  -6   3   14.56    4.13
   3  -6  -3   15.18    2.75
  -3   6   3   16.79    3.21
  -2   6   3   13.74    3.55
   2  -6  -3   13.62    2.86
  -2  -6   3   19.03    4.05
   2   6  -3    1.47    3.77
   1  -6  -3    0.26    3.06
   1   6  -3   -6.27    3.86
  -1  -6   3   -1.04    3.83
   0  -6   3   14.40    3.70
   0  -6  -3   18.04    3.71
   0  -6  -3    9.95    3.46
   0   6  -3   20.69    3.85
  -1  -6  -3   10.57    3.63
   1   6   3   10.24    3.98
   1   6   3   12.75    4.72
  -1  -6  -3   17.65    3.68
  -1   6  -3   20.01    3.91
  -2  -6  -3   17.27    4.07
   2  -6   3    7.68    3.11
  -2   6  -3   -1.50    3.16
   2   6   3   17.69    4.44
  -3   6  -3   43.09    3.40
  -3  -6  -3   45.23    4.20
   3   6   3   45.75    4.78
   4  -6   3    4.17    2.98
  -4   6  -3    3.15    2.64
   4   6   3    2.97    4.50
   5   6   3  123.21    5.95
  -5  -6  -3   58.35    5.10
   6   6   3  340.57    7.75
   6   6   3  160.03    6.44
  -7  -6  -3   28.74    4.67
   7   6   3   31.26    5.04
  -7  -6  -3   26.10    4.25
   7   6   3    1.81    4.40
   8   6   3    5.45    4.52
  -8  -6  -3   11.86    4.10
   9   6   3   31.73    4.84
  -9  -6  -3   31.73    4.47
 -10  -6  -3   20.73    4.66
  10   6   3   -1.75    4.11
  10   6   3   13.78    4.55
 -10  -6  -3   20.76    4.23
 -11  -6  -3   15.24    4.32
  11   6   3    9.97    3.97
 -11  -6  -3   14.20    4.02
  11   6   3    9.61    4.45
 -12  -6  -3    1.84    3.91
  12   6   3   -3.37    3.50
 -12  -6  -3    0.51    3.79
  12   6   3    1.99    4.15
  13   6   3   -0.14    3.66
  13   6   3    5.63    4.08
 -13  -6  -3    5.51    3.82
 -14   6  -3    5.29    3.15
  14   6   3    3.27    3.92
 -14  -6  -3    4.39    3.68
 -14  -6  -3    9.09    4.06
  14   6   3    0.43    3.44
  15  -6   3    6.89    3.08
 -15   6  -3    0.74    2.68
 -15   6  -3    4.05    9.65
  15   6   3    1.44    3.82
 -15  -6  -3    0.47    3.74
 -15  -6  -3    2.98    3.79
  15   6   3    7.34    3.46
  15  -6   3    8.33    4.71
 -16   6  -3    3.81    2.68
  16  -6   3    4.31    3.03
 -16   6  -3    1.88    6.52
  16  -6   3   -2.62    3.15
 -16  -6  -3    5.55    3.84
  16   6   3    1.99    3.83
 -16  -6  -3    1.44    3.53
  16   6   3   -1.70    3.08
  15   7  -3   -5.62    4.35
 -15   7   3   11.76    3.58
  15  -7  -3    7.52    2.89
 -15  -7   3   12.93    3.32
 -14   7   3   -1.66    3.37
  14  -7  -3    2.76    2.41
 -14   7   3   -0.05    2.23
  14   7  -3   -2.18    4.42
 -14  -7   3    8.77    5.48
 -14  -7   3   10.81    3.46
 -13   7   3   -2.03    3.01
  13   7  -3   -9.94    4.20
 -13  -7   3  -11.35    5.01
 -12  -7   3   10.73    5.11
 -12   7   3    3.75    1.65
  12  -7  -3    0.60    1.50
  12   7  -3    2.68    4.30
  12  -7  -3    4.42    2.34
 -12   7   3   -2.17    4.08
 -11  -7   3   -3.18    4.73
 -11   7   3    3.06    2.05
  11   7  -3   11.31    4.34
  11  -7  -3    5.30    1.59
 -10  -7   3    1.31    4.55
  10  -7  -3    3.50    1.60
  10   7  -3    0.13    4.26
  -9   7   3   10.25    2.17
   9  -7  -3    7.74    2.09
  -9  -7   3    8.79    4.57
   9   7  -3    0.37    4.06
  -8   7   3    5.83    2.23
   8  -7  -3    8.04    2.21
   8   7  -3    8.91    4.07
  -8  -7   3   19.55    4.48
   7  -7  -3    6.35    2.18
  -7   7   3   14.12    2.68
   7   7  -3    5.63    3.99
  -7  -7   3   13.04    4.39
   6  -7  -3    6.53    2.20
  -6  -7   3    3.86    4.35
   6   7  -3   -3.60    3.63
   5   7  -3    6.42    4.00
  -5  -7   3    8.34    4.25
   5  -7  -3   10.99    2.44
  -4  -7   3   10.84    4.25
   4   7  -3    7.60    4.04
   4  -7  -3    9.68    2.88
  -4   7   3   13.39    3.48
  -3  -7   3   17.11    4.63
   3   7  -3    7.49    3.91
   3  -7  -3   13.77    3.22
  -3   7   3   20.98    3.63
   2   7  -3    7.31    3.85
  -2  -7   3    6.15    4.02
   2  -7  -3   14.53    3.48
   1   7  -3   14.86    4.19
  -1  -7   3   10.75    3.73
   1  -7  -3    9.15    3.54
   1  -7  -3   13.35    3.59
   0  -7   3   -0.14    3.79
   0   7  -3   14.89    3.66
   0  -7  -3   17.37    3.58
   0   7   3    9.09    4.03
   0  -7  -3   13.01    3.42
   0   7   3    2.66    4.54
  -1   7  -3   18.35    3.90
  -1  -7  -3    8.72    3.61
   1   7   3    7.44    4.00
  -1  -7  -3    9.55    3.52
   1   7   3    9.73    4.14
   1  -7   3    4.11    3.47
   2   7   3   12.93    4.18
  -2  -7  -3    7.33    3.60
   2   7   3    1.94    4.18
   2  -7   3    7.59    3.17
  -2   7  -3   -5.65    3.33
  -3  -7  -3    9.93    3.88
   3   7   3   -0.10    4.03
   3   7   3   -0.36    4.19
  -3  -7  -3    4.50    3.79
   3  -7   3   10.52    2.89
  -3   7  -3    4.93    3.06
  -4  -7  -3   14.03    4.04
   4   7   3    6.37    4.05
   4   7   3   17.06    4.70
  -4   7  -3   16.74    3.03
  -5   7  -3    0.44    2.53
   5  -7   3    4.48    2.61
  -5  -7  -3   19.64    4.18
   5   7   3   18.81    4.19
  -6  -7  -3    3.42    3.72
   6   7   3   -0.59    4.17
  -6  -7  -3    9.53    4.00
   6   7   3    2.58    4.02
  -7  -7  -3    3.10    3.58
   7   7   3   -4.52    3.99
  -7  -7  -3    2.01    3.81
   7   7   3    8.55    3.99
  -8  -7  -3   19.06    3.91
   8   7   3   11.69    4.31
  -8  -7  -3   10.21    3.91
   8   7   3   10.71    3.89
  -9  -7  -3    7.36    3.84
   9   7   3    0.38    3.68
   9   7   3   -6.83    4.00
 -10  -7  -3    9.11    3.94
  10   7   3    8.43    3.62
 -10  -7  -3   -2.61    3.59
  10   7   3    1.43    4.20
 -11  -7  -3    5.20    3.80
  11   7   3   -2.88    3.33
 -11  -7  -3    5.32    3.73
  11   7   3    1.59    4.09
 -12  -7  -3    9.43    3.82
  12   7   3   -5.38    3.35
  12   7   3   11.53    4.01
 -12  -7  -3    8.17    3.73
 -13  -7  -3    3.24    3.54
  13   7   3   -1.02    3.24
  13   7   3    2.86    3.78
 -13  -7  -3    4.95    3.53
 -14  -7  -3    5.58    3.71
  14   7   3   -2.12    3.24
  14   7   3   -6.22    3.57
 -14  -7  -3    7.27    3.76
  12  -8  -3   -0.62    1.31
  12   8  -3   -5.07    3.95
 -11  -8   3   -1.22    4.53
  11  -8  -3    4.62    1.64
 -11   8   3    4.07    2.09
  11   8  -3   -3.07    4.17
 -10  -8   3   15.35    4.76
  10   8  -3    5.06    4.22
  10  -8  -3   -0.62    1.55
 -10   8   3    7.71    2.42
  -9  -8   3    9.81    4.47
  -9   8   3    5.48    2.58
   9   8  -3    4.71    4.14
   9  -8  -3    4.73    1.57
   8  -8  -3    1.50    1.65
  -8  -8   3    5.17    4.33
   8   8  -3    4.65    4.01
  -8   8   3    5.47    2.65
   7   8  -3    1.67    3.88
  -7  -8   3    5.05    4.10
  -7   8   3    9.94    2.80
   7  -8  -3    1.74    2.00
  -6  -8   3    3.11    4.01
   6   8  -3    7.09    3.69
   6  -8  -3    9.97    2.44
  -6   8   3    8.63    3.13
  -5  -8   3    6.86    4.07
   5   8  -3    1.17    3.61
   5  -8  -3    4.39    2.59
  -5   8   3    6.79    3.22
   4   8  -3    6.17    3.52
  -4  -8   3   11.20    4.05
   4  -8  -3    7.70    2.70
  -4   8   3    6.68    3.27
  -3  -8   3   10.37    3.86
   3   8  -3   -2.10    3.33
   3  -8  -3    8.35    2.79
  -3   8   3    2.40    3.30
  -2  -8   3    3.10    3.90
   2   8  -3    3.29    3.43
   2  -8  -3    2.79    2.71
  -2   8   3    6.72    3.42
   2  -8  -3    1.75    2.99
   1   8  -3    1.37    3.29
  -1  -8   3    0.51    3.83
   1  -8  -3    2.41    2.82
  -1   8   3   -0.25    3.38
   1  -8  -3    2.28    2.91
  -1   8   3    3.80    4.36
   0  -8   3   12.87    3.49
   0   8  -3    5.01    3.84
   0  -8  -3   13.27    3.23
   0   8   3    0.09    3.50
   0  -8  -3    5.36    3.10
   0   8   3    7.55    3.93
   1  -8   3   -0.07    3.51
  -1   8  -3    3.56    3.16
   1   8   3    0.36    3.87
  -1  -8  -3    5.45    3.29
  -1  -8  -3    3.04    3.15
   1   8   3    2.17    3.40
  -2   8  -3    3.01    3.46
  -2  -8  -3   -3.88    3.20
   2   8   3    2.10    3.84
  -2  -8  -3    3.19    3.30
   2   8   3    2.99    3.50
   2  -8   3    3.61    3.12
   3   8   3    1.69    4.04
  -3  -8  -3   13.38    3.41
  -3  -8  -3    4.96    3.29
   3   8   3    0.10    3.43
   3  -8   3    2.91    3.01
  -3   8  -3    8.07    3.06
   4   8   3    3.69    4.13
  -4  -8  -3   11.58    3.31
  -4  -8  -3    8.24    3.26
   4   8   3    0.88    3.42
   4  -8   3    6.75    2.61
  -4   8  -3    4.37    3.08
   5   8   3   12.63    4.09
  -5  -8  -3   10.04    3.39
   5   8   3   12.22    3.67
  -5   8  -3    2.74    2.72
   5  -8   3    1.24    2.53
  -6  -8  -3   -3.23    3.20
   6   8   3   -0.47    3.39
  -6  -8  -3    6.01    3.42
   6   8   3    4.10    3.77
   6  -8   3   -2.37    2.08
  -6   8  -3    1.35    2.45
  -7   8  -3   -0.31    2.82
  -7  -8  -3    7.89    3.46
   7   8   3   -1.14    3.82
  -7  -8  -3    2.28    3.46
   7   8   3    4.46    3.52
   8   8   3    4.94    3.79
  -8  -8  -3   13.45    3.62
  -8  -8  -3    7.90    3.50
   8   8   3    2.92    3.41
   9   8   3    8.15    3.81
  -9  -8  -3    6.45    3.37
  -9  -8  -3    3.88    3.29
   9   8   3    4.89    3.40
 -10  -8  -3    1.13    3.34
  10   8   3    8.20    3.82
  10   8   3    4.18    3.34
 -10  -8  -3   10.24    3.43
   7   9  -3    5.05    3.74
  -7  -9   3   -1.96    3.93
   7  -9  -3    1.79    2.05
  -7   9   3    1.31    2.80
  -6  -9   3    1.51    3.77
   6   9  -3   -1.96    3.60
   6  -9  -3    5.50    2.23
  -6   9   3    1.82    2.99
  -5  -9   3    4.53    3.75
   5   9  -3   -1.26    3.42
   5  -9  -3   -0.86    2.17
  -5   9   3    5.06    3.01
   4   9  -3    2.68    3.42
  -4  -9   3    3.34    3.85
   4  -9  -3    2.93    2.36
  -4   9   3    2.23    2.96
   3   9  -3    2.03    3.24
  -3  -9   3    9.28    3.69
   3  -9  -3   -2.54    2.42
  -3   9   3    5.71    3.07
   3  -9  -3    2.50    2.71
  -2  -9   3    5.43    3.59
   2   9  -3   -0.76    3.13
   2  -9  -3    1.89    2.66
  -2   9   3    2.34    3.19
  -2   9   3   13.44    4.29
   2  -9  -3    4.28    2.73
   1   9  -3    6.38    3.38
  -1  -9   3   14.86    3.90
   1  -9  -3    3.63    2.78
  -1   9   3    5.33    3.27
  -1   9   3    8.48    3.66
   1  -9  -3    8.10    2.96
   0   9  -3   -1.29    3.13
   0  -9   3    0.45    3.86
   0  -9  -3    6.83    2.91
   0   9   3    2.34    3.22
   0   9   3    7.69    3.69
   0  -9  -3    8.34    3.17
  -1   9  -3    5.13    3.20
   1  -9   3    4.78    3.10
  -1  -9  -3    3.74    2.77
   1   9   3    5.92    3.30
   1   9   3    7.58    3.73
  -1  -9  -3    9.11    3.25
   2  -9   3    5.27    3.32
  -2   9  -3   -5.67    3.23
   2   9   3    5.37    4.00
  -2  -9  -3    6.38    2.96
   2   9   3   -3.07    3.20
   3  -9   3    0.50    2.87
   3   9   3   -3.08    3.91
  -3   9  -3    1.11    2.89
  -3  -9  -3    0.24    2.98
  -3  -9  -3    5.19    2.96
   3   9   3    2.68    3.27
   4  -9   3    2.64    2.84
   4   9   3    8.07    3.87
  -4   9  -3   -0.76    3.06
  -4  -9  -3    7.40    3.06
  -4  -9  -3   -4.75    2.64
   4   9   3    3.48    3.21
  -5   9  -3    0.84    2.82
   5  -9   3    0.13    2.30
   5   9   3   -6.58    3.33
  -5  -9  -3    2.79    2.89
   5   9   3    0.11    3.06
  -5  -9  -3    1.89    3.16
  23   0  -4    1.37    3.65
 -23   0   4   20.13    5.69
  22   0  -4    6.58    3.82
 -22   0   4   11.03    5.64
 -21   0   4   -1.95    5.70
  21   0  -4    5.79    3.93
 -20   0   4    8.77    6.01
  20   0  -4    8.80    4.19
  19   0  -4   13.93    4.57
 -19   0   4   24.89    6.02
  18   0  -4   25.41    4.92
 -18   0   4   24.14    6.01
 -17   0   4   31.23    6.24
  17   0  -4   22.50    4.78
 -16   0   4   35.66    7.04
  16   0  -4    4.17    4.73
  15   0  -4   14.92    5.49
 -15   0   4   32.66    7.03
  14   0  -4  106.88    6.42
 -14   0   4  170.29    7.47
 -13   0   4   23.21    5.94
  13   0  -4    6.49    4.82
  12   0  -4   77.47    5.81
 -12   0   4   85.42    6.88
 -11   0   4  121.67    6.55
  11   0  -4   95.00    5.88
  10   0  -4    9.19    4.76
 -10   0   4   23.52    5.48
  -9   0   4   74.29    5.83
   9   0  -4   67.90    5.61
  -8   0   4  112.49    5.46
   8   0  -4  119.70    5.26
  -7   0   4  493.91    7.61
   7   0  -4  427.97    6.95
   6   0  -4  617.17    7.53
  -6   0   4  719.78    7.75
   5   0  -4  127.49    4.33
  -5   0   4  150.23    4.46
   4   0  -4 1020.38   10.04
  -4   0   4  727.41    8.35
  -2   0  -4  935.97   19.18
   2   0   4 2275.52   24.03
   3   0   4   -0.87    8.51
   4   0   4 1003.04   11.24
  -4   0  -4  967.50   11.16
  -5   0  -4  822.78    9.14
   5   0   4  823.77    9.03
   6   0   4   48.95    4.71
  -6   0  -4   46.81    4.83
   7   0   4   24.64    4.41
  -7   0  -4   31.09    4.33
   8   0   4   16.01    4.23
  -8   0  -4   19.62    4.28
  -9   0  -4  165.67    5.21
   9   0   4  195.80    6.97
   9   0   4  154.89    4.96
  -9   0  -4  150.38    6.42
 -10   0  -4  307.61    6.10
  10   0   4  275.58    5.75
  10   0   4  301.13    7.71
  11   0   4   -1.77    3.41
 -11   0  -4    1.85    3.54
  11   0   4    5.68    4.96
 -11   0  -4    4.54    4.31
 -12   0  -4   47.64    4.16
  12   0   4   39.82    3.87
 -12   0  -4   56.87    4.92
  13   0   4   -3.27    3.76
 -13   0  -4    6.53    4.25
  13   0   4   14.96    5.07
 -13   0  -4   10.02    4.42
 -14   0  -4   96.35    5.64
  14   0   4  128.95    6.34
  15   0   4   -6.22    5.08
 -15   0  -4    2.42    4.49
  15   0   4   10.34    3.97
 -15   0  -4   10.91    4.90
 -16   0  -4   34.41    4.36
 -16   0  -4   40.46    5.00
  16   0   4   23.15    3.79
 -17   0  -4    6.64    3.97
  17   0   4   -2.04    2.87
 -17   0  -4    6.98    4.18
  18   0   4   19.59    4.62
 -18   0  -4   27.58    4.26
 -18   0  -4   20.32    4.22
  18   0   4    6.96    2.73
  19   0   4    8.58    4.40
 -19   0  -4   -0.92    3.83
 -19   0  -4   -6.78    3.52
  19   0   4   -1.67    2.29
  20   0   4    9.82    4.31
  20   0   4   -0.44    2.08
 -20   0  -4   -4.83    3.37
 -20   0  -4   -1.08    3.69
  21   0   4    2.38    2.13
 -21   0  -4    7.40    3.49
  21   0   4    9.28    4.08
 -21   0  -4    4.80    3.67
  23   1  -4    2.28    3.80
 -23  -1   4   -4.01    5.55
  23  -1  -4    2.80    3.62
 -23   1   4    9.65    5.60
 -22   1   4   19.80    6.00
 -22  -1   4   10.48    5.56
  22   1  -4   -0.92    3.84
  22  -1  -4    0.69    3.65
 -21  -1   4    5.96    5.54
  21  -1  -4    9.58    4.08
  21   1  -4   12.66    4.14
 -21   1   4   22.69    5.99
  20  -1  -4    0.54    4.21
  20   1  -4    9.61    4.14
 -20  -1   4    8.51    5.92
 -19  -1   4    2.34    6.09
  19   1  -4    6.98    4.40
  19  -1  -4   11.27    4.55
 -18  -1   4   96.83    7.32
 -18   1   4   75.12    7.17
 -17   1   4   32.13    7.12
  17   1  -4   12.11    5.01
  17  -1  -4    1.46    4.77
 -17  -1   4   30.56    6.38
  16  -1  -4   79.17    6.29
 -16   1   4   91.72    7.04
 -16  -1   4   63.68    6.67
 -15  -1   4   36.51    6.73
  15   1  -4    9.37    4.89
 -15   1   4   40.38    6.29
  15  -1  -4   40.65    5.41
 -14  -1   4  107.34    8.04
 -14   1   4  104.04    7.12
 -13   1   4   64.57    6.81
 -13  -1   4  101.12    6.76
  13  -1  -4   56.22    5.93
  13   1  -4   58.75    6.50
  12  -1  -4  178.19    6.36
 -12   1   4  199.61    7.16
 -12  -1   4  170.21    7.03
 -11  -1   4   69.42    7.07
 -11   1   4  121.81    6.67
  11  -1  -4   78.21    5.43
 -10  -1   4  685.52   10.65
 -10   1   4  602.55    9.06
  -9  -1   4  458.87    8.86
  -9   1   4  437.26    7.40
   8  -1  -4  333.11    6.31
  -8   1   4  381.43    6.87
  -7   1   4  508.59    6.78
  -7  -1   4  452.05    7.73
  -6   1   4  489.82    6.49
   6  -1  -4  444.16    6.04
  -5   1   4  260.07    7.74
   5  -1  -4  250.67    7.07
  -4  -1   4  242.54    4.93
   4   1  -4  202.71    4.65
  -3  -1   4  254.09    5.99
   3   1  -4  253.24    5.84
   2   1  -4   86.54   11.81
  -2  -1   4   89.88   11.68
  -1   1   4   39.48   29.08
   0   1   4   65.66   13.48
   0  -1  -4   17.91   12.86
   1   1   4   42.86    8.26
  -1  -1  -4   41.80    8.13
   2   1   4  501.22    8.63
  -2  -1  -4  559.26    8.85
   3   1   4  212.81    5.97
  -3  -1  -4  245.13    6.15
   4  -1   4   17.93   13.41
  -4   1  -4   -4.01   14.18
   4   1   4   11.56    4.11
  -4  -1  -4   12.97    4.24
   5   1   4  136.09    5.45
  -5  -1  -4  137.08    5.54
   5  -1   4  114.27    9.54
  -5   1  -4   88.36    9.87
  -6  -1  -4  211.88    5.80
   6  -1   4  227.68    7.82
  -6   1  -4  256.51    8.17
   7   1   4    5.02    4.09
  -7  -1  -4    8.50    4.28
   7  -1   4    2.96    5.19
  -7   1  -4   10.97    5.65
  -8  -1  -4   34.21    5.24
  -8  -1  -4   32.24    4.15
   8   1   4   30.96    3.90
   8  -1   4   26.54    4.29
  -8   1  -4   32.67    4.57
  -9   1  -4    8.84    3.87
   9   1   4    5.06    3.69
  -9  -1  -4   10.42    3.90
   9  -1   4   13.86    3.63
  -9  -1  -4    8.31    4.54
  10  -1   4    7.73    3.66
 -10   1  -4   14.76    4.17
  10   1   4    7.93    3.85
 -10  -1  -4   12.56    4.13
 -10  -1  -4    4.78    4.11
 -10   1  -4   11.13    5.05
  11   1   4    7.32    4.01
  11  -1   4    9.82    3.41
 -11   1  -4    8.71    3.96
 -11  -1  -4   10.64    4.48
 -11  -1  -4   19.99    4.56
  11   1   4   30.10    5.31
 -11   1  -4   24.30    4.87
  11  -1   4   22.15    5.00
  12   1   4    5.99    3.92
 -12  -1  -4   12.59    4.64
 -12   1  -4   17.95    3.86
  12  -1   4   14.38    3.35
 -12  -1  -4   23.27    4.57
  12   1   4   18.13    5.28
 -12   1  -4    7.31    4.00
  13   1   4   -3.84    3.71
 -13   1  -4   -2.68    3.69
 -13  -1  -4    4.71    4.55
  13  -1   4    3.33    3.17
 -13   1  -4    8.50    4.16
  13  -1   4    6.33    4.72
  13   1   4   12.53    5.16
  14   1   4    9.88    3.76
 -14  -1  -4   11.12    4.79
  14  -1   4    5.19    3.48
 -14   1  -4   16.63    3.88
 -14   1  -4   18.19    4.34
 -14  -1  -4    3.55    4.60
  14  -1   4    5.49    4.66
 -15  -1  -4   15.85    4.25
  15   1   4   20.94    5.50
 -15   1  -4   27.51    4.68
  15   1   4   19.85    3.72
 -15  -1  -4   27.56    4.80
  15  -1   4   13.26    3.60
 -15   1  -4   31.37    4.38
  16   1   4    4.86    5.08
 -16   1  -4   14.35    4.42
  16  -1   4    8.68    5.00
 -16  -1  -4    7.49    4.16
 -16  -1  -4   -2.54    4.20
  16  -1   4   -1.53    3.43
 -16   1  -4    6.66    4.17
  16   1   4    6.20    3.20
 -17  -1  -4   -1.35    4.08
  17  -1   4    8.78    4.91
  17   1   4   10.25    4.61
 -17   1  -4    6.15    3.77
  17  -1   4   -0.21    3.06
 -17  -1  -4    2.99    4.06
 -17   1  -4   -6.59    4.02
  17   1   4   -3.60    2.72
  18   1   4    3.81    4.32
 -18   1  -4    1.71    3.65
  18  -1   4    4.03    4.51
 -18  -1  -4    8.25    4.23
 -18  -1  -4   -0.53    3.72
  18  -1   4    6.52    2.86
 -18   1  -4    8.77    4.29
  18   1   4   -0.54    2.65
  19  -1   4   -3.58    4.30
 -19   1  -4   -2.00    3.57
 -19  -1  -4    3.01    4.03
  19  -1   4   -1.50    2.43
 -19   1  -4   -5.73    3.94
 -19  -1  -4    6.01    3.66
  20  -1   4   10.09    4.04
  20   1   4    3.74    2.51
 -20  -1  -4    1.45    3.40
 -20   1  -4    7.79    3.83
  20  -1   4    0.11    2.16
  20   1   4   -6.30    4.11
 -20   1  -4    4.83    3.58
 -20  -1  -4    2.71    3.76
  23   2  -4   -0.18    4.06
  23  -2  -4    0.14    3.50
 -23   2   4    4.48    5.62
 -23  -2   4   15.71    5.96
  22   2  -4    8.76    4.18
 -22  -2   4   13.60    5.86
 -22   2   4    5.47    5.37
  22  -2  -4    4.34    3.74
  21  -2  -4   -2.30    3.80
 -21  -2   4   19.26    5.84
  21   2  -4    4.35    4.00
 -21   2   4   14.96    5.54
 -20   2   4   -1.47    5.73
  20  -2  -4    6.68    4.06
  20   2  -4   11.86    4.29
 -19   2   4   17.19    6.50
  19   2  -4   18.40    4.61
  19  -2  -4    4.67    4.30
 -19  -2   4   23.39    6.06
 -18  -2   4   23.78    6.23
 -18   2   4   24.30    7.29
  18  -2  -4   17.28    4.69
  18   2  -4   -2.78    4.31
  17  -2  -4   42.17    5.81
  17   2  -4   28.69    5.23
 -17   2   4   23.91    6.10
 -16   2   4   38.08    6.08
  16  -2  -4   21.09    4.79
  15   2  -4   10.42    5.19
 -15   2   4   33.84    6.84
  15  -2  -4   17.46    4.82
 -15  -2   4   19.65    6.27
 -14   2   4   96.35    6.78
  14  -2  -4   92.15    5.97
 -14  -2   4  107.40    7.20
 -13   2   4   32.14    5.56
  13   2  -4   21.27    5.11
  13  -2  -4   29.37    4.81
 -12   2   4   30.14    5.59
 -12  -2   4   15.52    6.14
  12   2  -4   15.34    5.54
  12  -2  -4   10.41    4.37
  11  -2  -4   22.15    4.33
 -11   2   4   19.77    4.81
 -11  -2   4   37.32    5.81
  11   2  -4   22.58    4.85
  10  -2  -4   10.54    3.77
 -10   2   4    7.93    4.60
  10   2  -4   -0.31    4.95
   9  -2  -4   30.12    3.95
  -9   2   4   32.91    4.49
  -9  -2   4   31.30    6.20
   9   2  -4   21.23    5.64
   8  -2  -4   51.69    3.87
  -8  -2   4   40.37    5.65
   8   2  -4   46.43    5.41
   7  -2  -4  118.32    4.46
  -7   2   4  139.62    5.24
   6  -2  -4  473.28    9.53
  -6   2   4  448.07   11.23
  -6  -2   4  458.21    7.76
  -5  -2   4  117.41    5.19
   5   2  -4   86.19    4.74
   4   2  -4   19.53    3.71
  -4  -2   4   29.21    3.93
   3  -2  -4   34.35   18.77
  -3   2   4   19.54   18.63
   2  -2  -4  368.98   11.36
  -2   2   4  387.24   11.44
   1   2  -4  599.72   12.54
   1  -2  -4  620.30    9.44
  -1   2   4  654.75    9.56
   0  -2  -4   71.13    5.54
   0   2   4   76.69    5.61
   1   2   4   74.43    5.06
  -1  -2  -4   72.33    4.93
   2   2   4  176.00    5.56
  -2  -2  -4  225.47    5.61
   3   2   4   50.83    4.59
  -3  -2  -4   58.29    4.64
   4   2   4  101.24    4.91
  -4  -2  -4  102.39    4.87
  -5  -2  -4  133.13    5.09
   5   2   4  102.33    4.82
  -6   2  -4   46.66   16.17
   6  -2   4   57.91   14.14
  -6  -2  -4   63.42    4.59
  -6  -2  -4   48.87    5.79
   6   2   4   52.20    4.51
   7  -2   4   -0.48    8.50
  -7   2  -4   15.57    9.26
   8   2   4   28.21    5.66
  -8  -2  -4    9.33    4.58
   8   2   4   13.01    4.48
  -8  -2  -4   16.41    4.65
   8  -2   4   17.24    5.96
  -8   2  -4   29.26    6.78
  -9  -2  -4    7.03    4.46
   9   2   4   11.34    5.23
   9  -2   4   -6.03    4.68
  10  -2   4    9.68    3.94
 -10   2  -4   11.93    4.64
  10   2   4   13.24    4.20
  11  -2   4    1.31    3.49
 -11   2  -4   16.97    4.37
 -11  -2  -4   10.25    4.65
  11   2   4   12.04    3.87
  11   2   4    4.09    5.31
 -11   2  -4    4.89    5.12
 -11  -2  -4   12.65    4.59
  12  -2   4   20.30    3.86
  12   2   4   21.45    3.99
 -12   2  -4    1.68    3.95
 -12   2  -4   27.24    4.99
  13   2   4   23.59    3.97
 -13  -2  -4   25.79    4.62
 -13   2  -4    6.84    4.23
  13  -2   4    7.47    3.60
 -13  -2  -4   27.78    5.01
  13   2   4   18.20    5.46
 -13   2  -4   24.36    4.45
  13  -2   4   16.55    5.02
  14   2   4    0.68    3.57
 -14   2  -4    5.42    4.08
  14  -2   4    4.56    3.35
 -14  -2  -4   10.60    4.39
  14   2   4   11.05    5.34
 -14   2  -4   13.29    4.21
  14  -2   4   11.64    4.65
 -14  -2  -4    6.56    4.11
  15   2   4    1.21    3.41
 -15  -2  -4    3.82    4.06
 -15   2  -4    0.97    3.83
  15  -2   4    2.42    3.03
  15   2   4   16.18    5.29
  15  -2   4    5.54    4.58
 -15  -2  -4    5.48    4.26
 -15   2  -4    5.29    3.97
  16   2   4    1.37    3.10
 -16  -2  -4    8.97    3.90
  16  -2   4    2.16    2.80
 -16   2  -4    8.22    3.65
  16   2   4   19.79    4.78
  16  -2   4    7.61    4.55
 -16  -2  -4    8.67    4.34
 -16   2  -4    3.94    3.99
  17   2   4   17.75    3.55
 -17  -2  -4   28.24    4.33
 -17  -2  -4   36.99    4.85
 -17   2  -4   29.09    3.95
  17  -2   4   21.48    3.15
 -17   2  -4   17.26    4.19
 -18  -2  -4    4.00    3.92
  18   2   4    6.74    3.18
 -18  -2  -4   10.14    4.35
 -18   2  -4   12.33    3.80
  18  -2   4    4.22    2.72
 -18   2  -4    1.70    3.48
  18  -2   4    9.52    4.69
  18   2   4   15.42    4.87
 -19  -2  -4    2.31    3.49
  19   2   4   -1.11    2.75
  19   2   4   -0.25    4.31
 -19  -2  -4    7.22    4.00
  19  -2   4    3.80    2.61
 -19   2  -4    7.63    3.65
  19  -2   4   17.03    4.70
 -19   2  -4    8.92    3.51
 -20  -2  -4    5.82    3.60
  20   2   4   -1.90    2.60
  20  -2   4   -3.64    4.21
  20   2   4   -4.05    4.19
 -20  -2  -4   -4.30    3.65
  20  -2   4   -0.44    2.42
 -20   2  -4    5.28    3.63
 -22   3   4   30.78    5.86
  22  -3  -4   18.25    4.20
 -22  -3   4   16.07    6.08
  22   3  -4   15.55    4.65
  21  -3  -4    1.63    3.73
 -21  -3   4    3.79    5.76
  21   3  -4   -2.70    4.10
  20   3  -4   12.49    4.43
  20  -3  -4    3.90    3.81
 -20  -3   4    8.62    5.83
 -20   3   4    8.80    6.17
  19   3  -4    5.04    4.28
 -19   3   4    8.80    5.84
 -19  -3   4   -0.93    5.59
  18   3  -4   17.43    4.69
 -18   3   4   14.24    5.70
 -18  -3   4   21.93    6.11
  18  -3  -4   27.26    5.38
  17   3  -4   13.33    4.64
 -17  -3   4   24.89    6.37
 -17   3   4   11.75    5.93
  17  -3  -4   20.86    4.54
 -16   3   4   25.89    6.37
 -16  -3   4   26.72    6.62
  16  -3  -4   11.93    4.68
  16   3  -4    9.33    4.86
  15  -3  -4   52.07    5.41
 -15  -3   4   62.51    6.91
  15   3  -4   32.56    5.42
 -15   3   4   53.82    6.20
  14   3  -4   11.70    5.04
 -14  -3   4   14.77    6.00
  14  -3  -4    7.36    4.35
 -14   3   4    1.05    5.43
 -13  -3   4   21.89    5.97
  13   3  -4   22.82    4.90
 -13   3   4   25.74    5.45
  13  -3  -4   25.87    4.65
  12   3  -4    8.77    4.79
 -12   3   4    8.74    4.70
  12  -3  -4    5.29    4.01
 -11   3   4  117.37    5.40
  11  -3  -4  126.77    4.74
 -11  -3   4  139.25    7.82
  11   3  -4   95.91    6.37
 -10  -3   4   30.32    5.77
  10   3  -4   13.31    5.37
  10  -3  -4   23.08    3.80
  -9   3   4  303.99    5.80
  -9  -3   4  367.88    8.82
  -8  -3   4  728.31   11.07
   8  -3  -4  698.12    7.56
  -7  -3   4   24.17    5.62
   7   3  -4   11.80    5.14
  -6  -3   4  354.68    7.83
   6   3  -4  229.34    6.73
   5   3  -4   31.00    5.13
  -5  -3   4   42.52    5.31
   4  -3  -4  369.50   10.02
  -4   3   4  431.27   10.15
   4   3  -4  373.44    6.94
  -4  -3   4  450.59    7.16
   3  -3  -4  258.37    7.04
  -3   3   4  264.45    6.86
  -3  -3   4  298.19    5.85
  -2   3   4   47.78    4.65
   2  -3  -4   35.88    4.50
  -1   3   4  177.78    5.23
   1  -3  -4  129.09    4.88
   0  -3   4   40.30    6.40
   0   3  -4   50.86    6.47
   0  -3  -4   43.58    4.41
   0   3   4   25.54    4.40
   1   3   4   25.87    4.16
  -1  -3  -4   30.70    4.33
  -2  -3  -4  178.27    5.33
   2   3   4  165.64    5.24
   3   3   4  126.66    5.22
  -3  -3  -4  153.00    5.21
  -4  -3  -4  346.78    6.73
   4   3   4  341.70    6.90
  -5  -3  -4   53.36    4.88
  -5  -3  -4    6.29    5.19
  -6  -3  -4    3.02    4.69
   6   3   4   11.44    5.62
   6   3   4    6.26    4.27
  -6  -3  -4   13.96    4.49
  -7  -3  -4   17.66    4.49
   7   3   4   23.79    5.39
   7   3   4    6.82    4.01
  -7  -3  -4   10.29    4.41
   8   3   4   36.41    5.58
  -8  -3  -4   36.65    4.81
   8  -3   4    4.83   12.90
   8   3   4   27.66    4.24
  -9  -3  -4  102.56    5.93
   9   3   4  128.90    6.81
  -9   3  -4   52.50   10.52
  -9  -3  -4   86.26    5.36
   9  -3   4   51.24    8.73
 -10  -3  -4  148.15    6.44
  10   3   4  185.42    7.38
 -10   3  -4  101.07    8.20
  10  -3   4  102.43    6.83
 -10  -3  -4  153.24    5.99
 -11  -3  -4   17.29    4.49
  11   3   4   10.60    3.85
  11   3   4   17.02    5.81
 -11  -3  -4    2.09    5.09
  11  -3   4    1.18    4.86
 -11   3  -4   15.35    6.11
  12   3   4    2.30    3.77
 -12  -3  -4   15.46    4.26
 -12   3  -4    1.23    5.15
 -12   3  -4   10.27    5.07
  12  -3   4    4.05    4.02
  13   3   4    9.53    3.69
 -13  -3  -4   13.56    4.20
  13   3   4   16.26    5.51
 -13   3  -4   15.02    4.71
  13  -3   4    8.19    4.75
 -13  -3  -4   13.83    4.43
 -13   3  -4   10.42    4.27
  13  -3   4    2.05    3.60
 -14   3  -4    5.26    3.79
  14  -3   4   -4.36    4.20
  14   3   4   16.99    5.38
 -14  -3  -4    3.37    4.36
 -14  -3  -4   -5.55    3.67
  14   3   4   15.04    3.96
  14  -3   4    5.14    3.36
 -14   3  -4    9.92    3.99
 -15   3  -4   11.07    3.75
  15  -3   4   11.46    4.19
 -15  -3  -4    4.98    4.23
  15   3   4   15.63    4.85
 -15   3  -4   -0.80    3.71
  15  -3   4    6.19    3.05
 -15  -3  -4    5.14    3.78
  15   3   4    8.34    3.72
 -16   3  -4    0.69    3.50
  16   3   4   13.22    4.73
  16  -3   4    8.10    4.30
 -16  -3  -4    6.21    4.21
  16  -3   4    0.52    2.53
 -16  -3  -4    2.65    3.74
  16   3   4    4.25    3.54
 -17   3  -4   -2.12    3.53
  17  -3   4   -8.26    4.04
 -17  -3  -4    2.66    4.14
 -17   3  -4    1.31    3.47
  17  -3   4    2.75    2.40
  17   3   4    4.65    3.47
  18  -3   4    7.16    4.43
 -18   3  -4   -0.54    3.56
  18   3   4    9.24    4.64
 -18  -3  -4   11.86    4.19
 -18   3  -4   -4.83    3.28
  18  -3   4    1.99    2.23
 -18  -3  -4   -0.14    3.94
  18   3   4    1.18    3.12
  19  -3   4   -2.37    4.19
 -19   3  -4    3.97    3.17
 -19  -3  -4    0.71    3.86
  19   3   4    5.74    3.09
  19  -3   4    1.16    2.19
 -19   3  -4    2.04    3.27
 -19  -3  -4    9.64    4.02
  19   3   4    0.13    4.32
  21   4  -4    2.01    4.21
  21  -4  -4   -0.84    3.58
 -21  -4   4   17.43    5.82
 -21   4   4   22.17    6.74
  20   4  -4    2.91    4.30
 -20   4   4    6.14    5.21
 -20  -4   4   -2.06    5.71
  19  -4  -4   -0.14    4.44
  19   4  -4    4.59    4.26
 -19  -4   4    9.96    5.86
 -19   4   4   -1.80    4.95
 -18  -4   4   12.20    5.79
 -18   4   4    7.05    5.87
  18   4  -4    0.15    4.31
 -17   4   4   13.51    5.67
  17  -4  -4  -10.63    3.99
 -17  -4   4    9.59    6.06
  17   4  -4   12.73    4.83
 -16   4   4   72.28    5.95
 -16  -4   4  113.89    7.51
 -15  -4   4   17.62    6.41
  15   4  -4   16.89    4.84
  15  -4  -4   18.27    4.32
  14  -4  -4   19.80    4.56
 -14   4   4   23.53    5.09
  14   4  -4    9.30    4.86
 -14  -4   4   14.12    6.05
 -13   4   4   13.71    4.45
  13  -4  -4   19.09    3.98
  13   4  -4   15.78    4.98
 -13  -4   4   26.67    5.82
  12  -4  -4   33.74    3.97
 -12   4   4   21.02    4.41
 -12  -4   4   40.07    6.06
  12   4  -4   21.66    5.09
  11  -4  -4   28.75    3.76
 -11   4   4   23.59    3.96
 -11  -4   4   30.16    6.01
  11   4  -4   21.60    4.88
 -10  -4   4   27.09    6.64
  10   4  -4   17.52    5.22
  10  -4  -4   16.13    3.27
 -10   4   4    8.26    3.69
   9   4  -4   43.78    6.17
  -9  -4   4   42.55    5.66
   9  -4  -4   20.74    4.19
  -9   4   4   22.90    5.12
  -8  -4   4   29.66    5.25
   8   4  -4   36.63    4.99
  -7  -4   4    3.44    5.94
   7   4  -4    0.84    5.18
  -7   4   4   -3.56    9.95
  -6  -4   4  467.37    8.79
  -6   4   4  401.69    8.10
  -5  -4   4  206.51    6.71
  -5   4   4  196.81    5.60
   4   4  -4   39.22    5.11
  -4  -4   4   42.19    4.97
  -4   4   4   44.53    3.95
   4  -4  -4   38.33    3.75
  -3  -4   4   58.37    4.46
   3  -4  -4   55.20    3.59
   3   4  -4   35.36    4.36
   2  -4  -4    6.09    3.57
  -2   4   4    3.11    3.59
  -2  -4   4   13.45    4.00
   2   4  -4   19.77    4.21
  -1   4   4  129.12    4.52
   1  -4  -4  137.29    4.47
   1   4  -4  134.29    5.23
  -1  -4   4  127.42    4.47
   0   4   4   38.17    4.13
   0   4  -4   22.59    3.85
   0  -4   4   40.27    3.75
  -1  -4  -4  216.33    6.19
   1   4   4  233.68    6.51
   1  -4   4  182.91    6.39
  -1   4  -4  190.34    6.77
   2   4   4 2795.82   16.17
  -2  -4  -4 3187.71   16.35
  -3  -4  -4  437.11    8.58
   3   4   4  442.07    8.34
  -4  -4  -4   20.60    4.72
  -4  -4  -4   16.75    5.29
   5   4   4    3.64    3.82
  -5  -4  -4   12.94    4.69
   5   4   4   14.03    5.82
   6   4   4   27.88    4.00
  -6  -4  -4   32.19    4.57
   7   4   4   16.42    3.85
  -7  -4  -4   29.12    4.24
   7   4   4   19.67    5.39
  -7  -4  -4   23.03    4.74
  -8  -4  -4   30.10    4.87
   8   4   4   29.80    4.22
  -8  -4  -4   17.35    4.25
   9   4   4   20.21    5.62
  -9  -4  -4   24.79    5.04
   9   4   4   21.36    4.14
  -9  -4  -4   13.33    4.41
 -10  -4  -4   19.03    5.22
  10   4   4   29.19    6.00
  10  -4   4    6.60   13.91
 -10  -4  -4   26.91    4.76
  10   4   4   25.21    4.46
  11   4   4   34.56    6.12
 -11   4  -4   34.58   12.63
 -11  -4  -4   21.89    4.61
  11   4   4   12.58    4.46
  11  -4   4  -12.39    8.62
 -12  -4  -4   15.93    4.12
  12   4   4    4.65    4.26
 -12   4  -4    1.41    8.14
  12  -4   4   15.81    6.04
 -13  -4  -4    2.30    3.96
  13   4   4    6.61    4.19
  13  -4   4   -4.59    4.34
 -13   4  -4   -5.76    5.84
 -14   4  -4   -3.58    4.25
  14   4   4    3.39    4.52
  14   4   4   -1.88    3.71
 -14   4  -4   -2.55    4.85
  14  -4   4    1.88    3.36
 -15   4  -4    0.46    3.52
  15  -4   4   10.31    4.12
  15   4   4   -1.07    4.65
 -15  -4  -4    6.58    4.24
 -15  -4  -4    3.04    4.12
  15   4   4    5.49    3.64
  15  -4   4   -0.15    2.85
 -15   4  -4   -2.75    3.96
  16  -4   4    5.29    3.85
 -16   4  -4    2.38    3.29
  16   4   4   14.77    4.63
 -16  -4  -4    8.75    4.18
 -16  -4  -4    7.57    4.19
  16   4   4    7.27    3.64
  16  -4   4    5.65    2.50
 -16   4  -4    8.32    3.67
 -17  -4  -4    3.81    4.22
  17   4   4    7.96    3.39
 -17   4  -4    3.07    3.34
  17  -4   4   14.99    4.14
  17   4   4    4.83    4.41
 -17  -4  -4    7.89    4.06
  17  -4   4    2.06    2.52
 -17   4  -4    1.96    3.39
  18  -4   4    8.40    4.06
 -18   4  -4   -3.05    3.24
 -18  -4  -4   -2.60    4.14
  18   4   4   -0.15    3.05
 -18   4  -4   -7.03    3.45
  18  -4   4    8.04    2.44
 -18  -4  -4   -4.70    3.81
  18   4   4    6.42    4.46
  20   5  -4    8.73    4.46
 -20   5   4    5.49    5.33
 -20  -5   4   11.83    5.73
  20  -5  -4   -2.13    3.97
  19   5  -4   -1.42    4.35
 -19  -5   4    9.02    5.72
 -19   5   4    0.83    5.27
  19  -5  -4    5.61    3.46
  18   5  -4    2.52    4.22
  18  -5  -4    1.51    3.87
 -18  -5   4   17.72    5.87
 -18   5   4    2.52    4.88
  17  -5  -4    5.91    3.92
  17   5  -4    3.02    4.32
 -17  -5   4  -14.36    5.47
 -17   5   4   11.91    4.99
 -16   5   4    5.95    5.07
  16   5  -4   12.70    4.64
 -16  -5   4   24.42    5.88
  16  -5  -4   14.59    3.76
 -15   5   4    5.11    4.69
  15  -5  -4    2.02    4.03
  15   5  -4   16.49    4.86
 -15  -5   4   14.05    5.89
  14   5  -4   -4.85    4.46
 -14  -5   4    7.39    5.90
  13  -5  -4   18.71    3.65
 -13   5   4   17.63    4.24
  13   5  -4   12.90    4.77
 -13  -5   4   34.83    6.21
  12  -5  -4    3.95    3.55
 -12   5   4    7.14    3.79
  12   5  -4    7.96    4.90
 -12  -5   4   12.52    5.60
  11   5  -4   15.61    5.05
 -11   5   4   24.84    4.09
  11  -5  -4   28.88    3.37
 -10  -5   4    0.62    5.48
  10   5  -4    1.61    4.62
 -10   5   4   17.93    6.40
  10  -5  -4    5.66    4.32
  -9  -5   4   14.29    6.11
   9   5  -4   -1.60    4.77
  -9   5   4   -2.56    7.53
   8   5  -4   55.12    5.88
   8  -5  -4   38.39    5.26
  -8  -5   4   62.88    6.02
  -8   5   4   48.23    4.84
  -7   5   4   30.54    3.72
   7  -5  -4   27.85    3.71
  -7  -5   4   34.14    5.19
   7   5  -4   33.15    4.92
   6   5  -4   44.23    4.93
   6  -5  -4   34.02    3.15
   5  -5  -4   19.07    3.13
  -5   5   4   29.82    3.43
  -5  -5   4   39.58    5.33
   5   5  -4   29.28    5.22
   4  -5  -4   23.47    3.06
  -4   5   4   18.70    3.28
  -4  -5   4   32.18    4.87
   4   5  -4   12.18    4.58
   3   5  -4   16.74    4.40
  -3   5   4   27.11    3.22
  -3  -5   4   30.30    4.83
   2  -5  -4    5.79    2.98
  -2   5   4    6.70    3.46
   2   5  -4   16.01    4.21
  -2  -5   4    9.33    3.96
  -1  -5   4  106.25    4.76
   1   5  -4   68.44    4.40
  -1   5   4   78.71    4.69
   0  -5   4  100.50    4.51
   0   5  -4   84.31    4.40
  -1  -5  -4   22.13    4.15
   1   5   4   17.42    4.04
  -1   5  -4   14.04    3.30
  -2   5  -4   36.70    4.22
   2  -5   4   41.83    4.67
   3   5   4   29.36    4.03
  -3  -5  -4   37.53    4.26
  -3  -5  -4   31.49    4.91
  -4  -5  -4   16.86    4.57
   4   5   4    5.95    5.72
  -4  -5  -4   17.50    3.95
   4   5   4   14.66    3.76
  -5  -5  -4   11.66    4.21
   5   5   4   12.26    5.45
   5   5   4   16.48    3.78
  -5  -5  -4   17.56    3.88
   6   5   4   32.70    5.59
   6   5   4   24.47    3.98
  -7  -5  -4   22.90    4.59
  -7  -5  -4   22.54    4.21
   7   5   4   19.53    4.29
   8   5   4   10.88    5.31
  -8  -5  -4   19.14    4.95
  -8  -5  -4    7.11    4.07
   8   5   4    5.52    4.44
   9   5   4   16.07    5.62
  -9  -5  -4   17.13    5.02
  -9  -5  -4   12.99    4.59
   9   5   4   23.22    4.83
 -10  -5  -4   82.88    5.73
  10   5   4   74.11    6.46
 -10  -5  -4   54.51    5.30
  11   5   4   21.91    5.79
 -11  -5  -4   13.55    4.45
 -11  -5  -4    3.92    4.41
  11   5   4   -3.85    4.22
  12   5   4    3.89    5.39
 -12  -5  -4   11.29    4.44
 -12  -5  -4   -3.65    4.19
  12   5   4    9.76    4.14
 -13   5  -4  -21.25   11.83
  13  -5   4    4.03    6.94
  13   5   4   -8.84    3.65
  14   5   4   -6.81    4.34
 -14  -5  -4    3.76    3.97
 -14  -5  -4    5.33    4.14
  14   5   4   -7.14    3.38
  14  -5   4   11.43    4.91
 -14   5  -4    2.78    8.05
 -15   5  -4    8.41    4.07
  15   5   4    9.36    4.54
 -15  -5  -4   -0.61    3.86
 -15  -5  -4    9.45    4.19
  15   5   4    6.67    3.49
  15  -5   4    3.97    3.73
 -15   5  -4   -0.34    6.00
  16  -5   4    5.70    3.78
 -16   5  -4    6.34    3.43
  16   5   4   -9.07    4.21
 -16  -5  -4    5.64    3.86
 -16  -5  -4    5.33    4.13
  16   5   4    0.15    3.19
  16  -5   4    2.01    2.98
 -16   5  -4    8.72    5.13
 -17   5  -4    1.70    3.06
  17  -5   4    8.55    3.74
  17  -5   4    6.18    2.54
 -17   5  -4   -4.60    4.23
 -17  -5  -4   -5.99    3.70
  17   5   4   -6.01    4.17
 -17  -5  -4   -4.23    3.88
  17   5   4    6.55    3.13
  18   6  -4    8.88    4.44
  18  -6  -4    2.37    3.33
 -18  -6   4   -7.22    5.32
 -18   6   4    3.49    4.70
  17   6  -4    4.43    4.15
 -17   6   4    8.43    4.52
 -17  -6   4    4.59    5.42
  17  -6  -4    3.04    3.29
 -16   6   4   -4.05    4.05
  16  -6  -4    6.55    3.47
  16   6  -4   -1.63    4.07
 -15   6   4    4.33    4.27
  15  -6  -4    7.32    3.18
  15   6  -4    1.85    4.18
  14  -6  -4    2.92    3.13
 -14   6   4   17.66    4.54
  14   6  -4    5.25    4.64
 -13   6   4   19.35    3.87
  13  -6  -4   26.19    3.17
  13   6  -4   17.22    4.98
 -12  -6   4   15.69    5.89
  12   6  -4   19.61    4.83
  12  -6  -4   25.04    3.16
 -12   6   4   27.67    4.61
  11   6  -4    0.94    4.53
 -11  -6   4    5.39    5.33
  11  -6  -4    7.76    4.12
 -11   6   4   -0.19    5.63
 -10   6   4   14.62    3.78
  10  -6  -4    1.39    4.00
  10   6  -4   12.62    4.75
   9  -6  -4    7.43    3.13
  -9  -6   4   19.39    5.34
   9   6  -4    2.36    4.47
   8   6  -4   14.16    4.72
   8  -6  -4   16.09    2.85
  -8   6   4   19.40    3.18
   7  -6  -4    4.33    2.87
  -7   6   4   10.00    2.99
   7   6  -4    1.81    5.06
  -7  -6   4    0.12    5.33
   6   6  -4   37.87    5.62
   6  -6  -4   36.79    3.05
  -6   6   4   22.46    3.04
  -5   6   4   15.08    3.38
   5  -6  -4    6.09    2.74
  -5  -6   4   11.03    5.04
   5   6  -4    7.05    4.42
   4  -6  -4    2.75    3.01
  -4  -6   4    3.35    4.75
   4   6  -4    5.35    4.72
   3  -6  -4   12.38    3.51
  -3   6   4    6.23    3.53
  -3  -6   4   20.44    4.41
   3   6  -4    4.94    4.53
   2  -6  -4   -0.35    3.38
   2   6  -4    4.85    4.17
  -2  -6   4    7.48    4.44
  -1   6   4    2.79    3.43
   1  -6  -4    9.88    3.53
   1   6  -4   10.09    4.13
  -1  -6   4    6.79    3.81
   0   6   4    2.13    3.43
   0   6  -4   10.72    3.74
  -1  -6  -4   34.55    3.90
   1   6   4   29.86    3.94
  -2  -6  -4    5.92    4.46
   2  -6   4   35.50    3.38
   3  -6   4   21.18    3.87
  -3   6  -4    6.91    3.39
  -3  -6  -4   22.81    4.61
   3   6   4   18.30    5.80
   3   6   4   21.58    4.11
  -3  -6  -4   23.19    4.00
  -4  -6  -4   13.87    4.43
   4   6   4   22.70    5.61
  -4  -6  -4   17.45    4.06
   4   6   4    6.54    4.41
  -5  -6  -4   85.46    5.38
   5   6   4   61.96    5.86
   5   6   4   62.07    5.27
  -5  -6  -4   78.00    4.95
  -6  -6  -4    1.45    4.22
   6   6   4    6.67    4.55
  -6  -6  -4   -2.49    4.16
   6   6   4   -0.99    5.15
  -7  -6  -4    5.29    4.16
   7   6   4   11.14    4.60
  -7  -6  -4    4.09    4.36
   7   6   4    4.62    4.98
  -8  -6  -4    5.90    4.31
   8   6   4    5.28    4.62
   8   6   4    6.80    5.24
  -8  -6  -4   -1.00    4.49
  -9  -6  -4   19.51    4.49
   9   6   4    5.03    4.41
   9   6   4   19.70    5.69
 -10  -6  -4    9.25    4.45
  10   6   4    8.45    4.15
  10   6   4   22.12    5.73
 -10  -6  -4   19.72    4.28
 -11  -6  -4    6.58    4.48
  11   6   4    4.52    3.89
  11   6   4   12.94    5.39
 -11  -6  -4   -4.51    4.04
  12   6   4   -2.00    3.62
  12   6   4   -0.24    4.52
  13   6   4    8.26    4.50
 -13  -6  -4   20.75    4.37
  13   6   4    8.71    3.71
 -13  -6  -4    7.77    4.20
  14   6   4    3.22    4.46
 -14  -6  -4    0.15    3.82
  14   6   4    2.80    3.36
 -14  -6  -4    0.49    3.88
  15  -6   4    8.14    6.12
  15   6   4    2.38    4.36
 -15  -6  -4    9.86    3.91
 -15  -6  -4    7.34    4.00
  15   6   4    7.66    3.44
  15  -7  -4    3.86    2.79
 -15   7   4    4.94    3.63
  15   7  -4    1.66    4.28
 -14   7   4    2.64    3.45
  14  -7  -4    5.59    2.67
  14   7  -4    1.89    4.06
 -14  -7   4    5.59    4.97
 -13  -7   4    2.45    5.01
  13   7  -4   -3.94    3.84
 -13   7   4    5.66    4.82
 -13   7   4    7.65    3.68
 -12  -7   4    7.04    5.23
  12   7  -4    7.49    4.17
 -12   7   4    9.19    2.72
  12  -7  -4   -1.01    2.85
  12  -7  -4    6.20    4.62
 -11   7   4   12.40    2.61
  11  -7  -4    6.66    2.25
 -11  -7   4    9.01    5.38
  11   7  -4   15.99    4.32
 -10   7   4    5.65    2.41
  10  -7  -4    1.73    1.98
  10   7  -4    2.84    4.13
 -10  -7   4    5.25    4.96
  -9  -7   4    6.20    4.82
   9   7  -4    3.64    4.26
   9  -7  -4    3.02    2.16
  -9   7   4    8.36    2.40
  -8  -7   4   15.25    4.97
   8   7  -4    1.15    4.25
  -8   7   4   10.23    2.74
   8  -7  -4    1.34    2.19
  -7  -7   4   -1.66    5.24
   7   7  -4   -1.46    4.12
  -7   7   4    0.95    3.13
   6   7  -4   10.09    4.54
  -6  -7   4   20.03    5.52
   6  -7  -4    9.77    2.73
  -6   7   4    0.05    3.09
   5   7  -4   13.14    4.99
  -5  -7   4   29.02    4.74
  -5   7   4   25.68    3.30
   5  -7  -4   19.34    3.21
  -4  -7   4   14.04    4.62
   4   7  -4   21.09    4.31
   4  -7  -4    1.85    3.03
  -4   7   4   11.63    3.14
   3   7  -4   10.70    4.33
  -3   7   4    9.13    3.15
   3  -7  -4    0.41    2.91
  -2  -7   4    4.16    4.08
   2   7  -4    5.57    4.40
   2  -7  -4    1.98    2.92
   1   7  -4    8.47    3.96
  -1   7   4   17.59    3.58
  -1  -7   4    3.96    4.17
   1  -7  -4   13.80    3.03
   0   7   4   12.67    3.83
   0  -7  -4    7.46    3.04
   0   7  -4   13.96    4.14
   0  -7   4   20.16    3.75
  -1  -7  -4    5.04    3.10
   1   7   4    9.84    4.01
  -1  -7  -4    4.87    3.81
   1  -7   4    7.48    3.35
  -1   7  -4   -2.67    3.49
  -2  -7  -4   16.88    3.62
   2   7   4   20.94    4.32
  -2  -7  -4   15.42    4.01
   2   7   4   28.46    5.70
   2  -7   4   22.83    3.41
  -2   7  -4   16.79    3.71
   3  -7   4    2.22    2.76
  -3  -7  -4    4.16    3.74
   3   7   4    7.38    4.30
  -3  -7  -4   -5.61    3.55
   3   7   4   -0.79    5.01
  -3   7  -4    2.68    3.49
   4  -7   4   10.61    3.10
  -4   7  -4    0.60    3.00
  -4  -7  -4   14.61    3.98
   4   7   4    6.85    4.77
  -4  -7  -4    3.06    3.83
   4   7   4   15.49    4.49
  -5   7  -4   -3.12    4.29
  -5  -7  -4    7.58    3.88
   5   7   4   14.78    4.20
   5   7   4    9.61    4.92
  -5  -7  -4   12.76    4.01
  -6  -7  -4    4.71    3.85
   6   7   4    6.97    4.10
   6   7   4    5.60    4.86
  -6  -7  -4    2.58    4.11
  -7  -7  -4    4.54    3.81
   7   7   4    5.74    4.05
  -7  -7  -4    9.29    4.14
   7   7   4    2.64    5.03
  -8  -7  -4   10.68    4.11
   8   7   4    9.75    3.97
   8   7   4    0.25    4.99
  -8  -7  -4    9.97    4.03
  -9  -7  -4   31.21    4.37
   9   7   4   14.54    4.21
  -9  -7  -4   21.78    4.05
 -10  -7  -4   25.72    4.13
  10   7   4    8.87    4.15
  11   7   4    5.64    4.49
 -11  -7  -4   -3.51    3.69
  11   7   4    7.70    3.95
 -11  -7  -4    3.87    4.00
  12   7   4   -8.17    4.24
 -12  -7  -4    9.44    3.96
  13   7   4    1.97    4.23
 -13  -7  -4   -1.10    3.74
 -13  -7  -4    9.25    3.91
  13   7   4    4.91    3.61
 -12   8   4    0.28    2.02
  12  -8  -4   -3.75    1.65
  12   8  -4   -6.19    3.71
 -12  -8   4    5.36    4.59
 -11  -8   4    7.96    4.78
  11   8  -4   -4.75    3.72
  11  -8  -4    2.71    1.69
 -11   8   4    2.40    2.35
 -10  -8   4   16.49    4.96
  10   8  -4    2.95    3.94
 -10   8   4    8.69    2.72
  10  -8  -4    5.46    1.76
   9   8  -4    3.13    3.92
  -9  -8   4   13.83    4.88
  -9   8   4    0.09    2.54
   9  -8  -4   -0.30    1.95
   8   8  -4    5.43    3.96
  -8  -8   4    3.10    4.56
   8  -8  -4    1.10    2.24
  -8   8   4   -0.88    2.50
  -7  -8   4    5.70    4.54
   7   8  -4    1.43    3.92
  -7   8   4    8.74    2.55
   7  -8  -4    1.39    2.29
  -6  -8   4    8.77    4.67
   6   8  -4    6.21    3.83
   6  -8  -4    2.45    2.23
  -6   8   4    7.13    2.61
   5   8  -4   -3.87    3.73
  -5  -8   4   10.19    5.28
  -5   8   4    6.38    2.87
   5  -8  -4    3.57    2.23
   4   8  -4   -2.27    4.18
  -4  -8   4    3.06    4.13
  -4   8   4    1.71    3.22
  -3  -8   4   -8.51    3.95
   3   8  -4   -0.12    4.06
  -3   8   4    2.52    3.37
   3  -8  -4    3.48    2.37
  -2  -8   4   11.42    4.38
   2   8  -4   -9.67    3.59
  -2   8   4    2.48    3.44
   2  -8  -4    4.88    2.39
  -1  -8   4   -2.50    3.75
   1   8  -4   10.77    4.13
   1  -8  -4    3.74    2.77
  -1   8   4   -2.04    3.55
   0   8  -4    6.28    3.71
   0  -8  -4   10.52    3.42
   0  -8  -4   -1.47    2.94
   0   8   4    4.53    3.70
   0  -8   4    4.76    3.74
  -1  -8  -4    3.70    3.20
   1   8   4    2.98    5.01
  -1  -8  -4    8.96    3.28
   1   8   4    2.69    3.70
  -1   8  -4    4.58    3.61
   1  -8   4    8.70    3.52
  -2  -8  -4    0.10    3.32
   2   8   4   15.03    4.91
  -2  -8  -4    3.95    3.32
   2   8   4   14.15    3.89
  -2   8  -4   -4.01    3.33
   2  -8   4    1.58    3.00
   3   8   4   10.58    4.44
  -3  -8  -4    4.44    3.56
  -3  -8  -4    0.84    3.49
   3   8   4    0.95    3.61
  -3   8  -4    2.36    3.11
   3  -8   4    5.88    2.86
  -4  -8  -4   10.75    3.82
  -4   8  -4    3.59    3.04
  -4  -8  -4    8.92    3.60
   4   8   4    9.57    4.55
   4  -8   4    9.80    2.64
  -5  -8  -4   12.92    3.67
   5   8   4    7.34    3.88
   5   8   4    1.40    4.46
  -5  -8  -4    4.09    3.74
  -5   8  -4    0.78    2.72
   5  -8   4   -1.95    2.68
  -6  -8  -4    2.76    3.56
   6   8   4    9.98    4.61
  -6  -8  -4   -1.97    3.63
  -6   8  -4    6.14    3.51
   7   8   4   -3.08    4.88
  -7  -8  -4   11.63    3.93
  -7  -8  -4   17.87    3.88
   7   8   4   13.78    4.18
  -8  -8  -4   10.95    3.72
  -8  -8  -4    7.81    3.59
   8   8   4   21.75    4.17
  -9  -8  -4    8.64    3.69
   9   8   4  -10.00    4.75
  -9  -8  -4    1.88    3.40
   9   8   4    7.86    3.71
 -10  -8  -4   11.26    3.67
  10   8   4    2.69    3.51
 -10  -8  -4    0.23    3.49
  10   8   4    4.00    4.12
   7  -9  -4    2.34    1.88
  -7   9   4    7.88    3.04
   7   9  -4    2.53    3.58
  -7  -9   4    1.35    4.23
   6  -9  -4    3.80    2.00
   6   9  -4   10.10    3.67
  -6  -9   4    0.83    4.21
  -6   9   4    3.51    3.16
  -5  -9   4    5.65    4.27
   5   9  -4   -0.88    3.47
  -5   9   4    7.29    3.30
   5  -9  -4    0.65    1.98
   4   9  -4    0.95    3.56
  -4  -9   4    3.45    4.72
   4  -9  -4    4.39    2.32
  -4   9   4    4.63    3.24
   3   9  -4   -9.16    3.52
  -3  -9   4    9.75    4.02
   3  -9  -4    1.32    2.48
  -3   9   4    4.98    3.37
   2   9  -4   -9.10    3.95
  -2  -9   4    9.84    3.84
   2  -9  -4    4.15    2.70
  -2   9   4    6.52    3.30
  -1  -9   4    4.96    3.90
   1   9  -4    3.08    3.48
   1  -9  -4    6.57    3.16
   1  -9  -4    6.50    3.03
  -1   9   4    5.92    3.42
   0  -9   4    8.24    3.64
   0   9  -4    7.81    3.62
   0  -9  -4    4.39    3.05
   0   9   4    8.13    3.52
   0  -9  -4    9.57    3.16
   0   9   4    1.54    4.95
  -1   9  -4   -6.18    3.55
   1  -9   4    7.92    3.57
  -1  -9  -4   -1.07    2.89
   1   9   4    3.37    3.62
   1   9   4    7.00    4.39
  -1  -9  -4   -1.14    2.89
  -2   9  -4    0.17    3.31
   2  -9   4    6.52    3.30
  -2  -9  -4   11.67    3.20
   2   9   4   10.15    4.09
  -2  -9  -4    5.59    2.94
   2   9   4    2.82    3.60
   3  -9   4   -2.08    2.70
  -3   9  -4    2.50    3.41
  -3  -9  -4   -1.96    3.29
   3   9   4   10.03    4.24
  -3  -9  -4   -4.29    2.82
   3   9   4   -1.10    3.58
   4  -9   4    4.30    2.61
  -4   9  -4   -3.07    2.91
  -4  -9  -4   -0.65    3.39
   4   9   4   -8.49    3.98
  -4  -9  -4    0.26    2.87
   4   9   4    3.97    3.69
  23   0  -5    5.38    4.23
 -23   0   5   12.80    6.07
 -22   0   5    7.76    6.23
  22   0  -5   -0.16    4.13
 -21   0   5    5.81    6.19
  21   0  -5    6.65    4.38
 -20   0   5    9.74    6.85
  20   0  -5   13.10    4.56
 -19   0   5   30.10    7.41
  19   0  -5   10.05    4.98
  18   0  -5   18.75    5.83
 -18   0   5   15.87    6.40
 -17   0   5   37.69    6.75
  17   0  -5   30.79    5.32
 -16   0   5    2.98    6.93
  16   0  -5    7.76    5.08
 -15   0   5   33.44    7.59
  15   0  -5   27.08    6.06
  14   0  -5   40.21    6.31
 -14   0   5   39.34    7.08
 -13   0   5   29.74    6.54
  13   0  -5    9.20    5.35
  12   0  -5   35.67    5.57
 -12   0   5   35.71    6.60
 -11   0   5   50.64    6.02
  11   0  -5   25.35    5.30
  10   0  -5   14.48    4.69
 -10   0   5   10.44    5.11
  -9   0   5    6.70    5.04
   9   0  -5   10.82    4.69
  -8   0   5   11.46    4.84
   8   0  -5    9.32    4.32
   7   0  -5   44.59    4.24
  -7   0   5   51.35    4.63
   6   0  -5   73.78    4.39
  -6   0   5   97.55    4.71
   5   0  -5    8.45    5.83
  -5   0   5   31.14    5.75
  -4   0   5  151.69   13.32
   4   0  -5  148.86   13.29
   2   0   5  -39.38   19.80
   3   0   5   -4.94   10.97
  -3   0  -5   -6.15   10.97
  -4   0  -5   -3.37    8.93
   4   0   5  -12.81    8.33
  -5   0  -5   12.33    7.65
   5   0   5   31.20    7.42
   6   0   5   38.57    5.76
  -6   0  -5   32.33    6.10
   7   0   5    0.23    4.43
  -7   0  -5   -0.53    4.81
  -8   0  -5   37.09    4.79
   8   0   5   32.72    4.40
  -9   0  -5   71.14    5.44
   9   0   5   21.63    4.80
 -10   0  -5    0.24    4.57
  10   0   5   -6.14    4.01
 -11   0  -5    2.79    5.69
  11   0   5   21.20    5.93
 -11   0  -5   16.87    4.41
  11   0   5    7.12    3.71
 -12   0  -5    2.05    5.28
 -12   0  -5   -1.99    4.21
  12   0   5    4.31    3.66
 -13   0  -5    3.49    4.62
  13   0   5   -4.24    5.47
  13   0   5   10.20    3.72
 -13   0  -5   -1.79    4.27
 -14   0  -5    6.47    4.52
  14   0   5   14.04    5.55
  14   0   5   -1.24    3.70
 -15   0  -5   10.60    4.44
  15   0   5    2.39    5.10
  15   0   5   -0.10    3.63
 -15   0  -5    0.94    4.26
 -16   0  -5    4.13    4.31
 -16   0  -5  -10.24    4.08
 -17   0  -5    3.87    4.28
  17   0   5   -7.39    4.95
  17   0   5    8.58    3.46
 -17   0  -5   -1.74    4.15
 -18   0  -5    5.91    4.10
  18   0   5   15.56    5.13
  18   0   5   -0.13    2.99
 -18   0  -5    6.28    4.31
  19   0   5    7.40    5.11
 -19   0  -5   13.79    4.24
 -19   0  -5   18.52    4.38
  19   0   5    3.80    2.79
 -20   0  -5    3.67    3.55
  20   0   5    4.93    4.95
  20   0   5   -2.66    2.39
 -20   0  -5    3.78    4.04
 -23   1   5    6.70    6.10
  23   1  -5    7.81    4.13
  23  -1  -5   15.90    4.22
 -23  -1   5    4.71    5.97
  22   1  -5    3.20    4.28
 -22   1   5    5.63    6.42
  22  -1  -5    3.20    3.96
 -22  -1   5    1.97    5.73
 -21   1   5   12.28    6.99
  21   1  -5    6.07    4.21
  21  -1  -5    3.00    4.28
 -21  -1   5   -9.83    5.76
  20  -1  -5   10.20    4.80
 -20   1   5   18.03    6.80
 -20  -1   5   24.29    6.45
  20   1  -5    4.52    4.40
  19  -1  -5   19.15    5.70
 -19  -1   5   14.87    6.81
  19   1  -5    4.44    4.68
 -19   1   5   23.49    6.25
 -18  -1   5   11.33    7.39
  18   1  -5   10.07    5.12
 -18   1   5   10.48    6.20
  18  -1  -5   15.51    4.90
  17   1  -5   23.15    6.20
 -17   1   5   10.92    7.21
  17  -1  -5   10.89    4.89
  16   1  -5   23.70    5.79
  16  -1  -5   21.33    5.97
 -16  -1   5   23.32    6.62
 -15   1   5   50.57    7.20
  15  -1  -5   24.56    5.82
 -15  -1   5   50.54    7.37
  15   1  -5   37.51    5.67
 -14   1   5  141.86    7.73
 -14  -1   5  212.68    9.30
 -13  -1   5   90.41    7.69
  13  -1  -5   44.57    5.69
  13   1  -5   57.83    6.44
 -13   1   5   61.33    7.07
  12  -1  -5   36.79    5.27
 -12   1   5   23.31    5.66
 -12  -1   5   19.46    6.26
  12   1  -5   25.35    5.46
 -11   1   5   12.52    4.98
  11  -1  -5    9.21    4.46
  11   1  -5   22.04    5.30
 -10   1   5   33.21    5.23
  10  -1  -5    9.43    4.59
  -9  -1   5  425.14    8.58
  -9   1   5  427.90    8.23
   8   1  -5  160.72    6.08
  -8   1   5  180.50    5.58
  -8  -1   5  215.55    6.99
   8  -1  -5  179.09    5.18
   7  -1  -5  844.58    8.59
  -7  -1   5  920.60    9.94
  -7   1   5  865.00    9.27
   6  -1  -5 1040.13   11.45
  -6   1   5  885.12   11.56
  -5  -1   5  129.59    4.83
   5   1  -5  110.70    4.78
   4   1  -5   39.22    5.22
  -4  -1   5   43.84    5.41
  -3  -1   5   74.99   10.18
   3   1  -5   79.46    9.75
   0  -1  -5  -17.18   16.80
   0   1   5   10.32   17.63
  -1  -1  -5   50.00   10.86
   1   1   5   41.45   11.11
  -2  -1  -5   97.99    8.45
   2   1   5   77.91    8.46
   3   1   5  183.96    7.64
  -3  -1  -5  188.07    7.61
   4  -1   5   -1.23   18.57
  -4   1  -5   17.79   19.52
  -4  -1  -5   22.77    5.53
   5   1   5   27.26    5.35
   5  -1   5   -0.32   11.98
  -5  -1  -5   24.71    5.32
  -6   1  -5  295.90   11.68
   6  -1   5  304.47   10.95
  -7  -1  -5   -5.82    4.60
   7   1   5    7.30    4.65
  -7   1  -5   16.95    6.83
   7  -1   5    7.60    6.50
  -8  -1  -5   32.00    4.59
   8   1   5   29.80    4.33
   8  -1   5   27.42    5.35
  -8   1  -5   27.52    5.85
  -9  -1  -5   23.01    4.18
   9   1   5   29.13    4.04
  -9   1  -5   16.97    4.80
   9  -1   5   20.10    4.50
  10   1   5   10.88    3.74
 -10  -1  -5    4.06    4.01
  10  -1   5    6.10    4.09
 -10   1  -5   -2.11    4.35
 -11  -1  -5   37.19    5.66
  11  -1   5   34.67    4.43
  11   1   5   22.54    3.93
 -11  -1  -5   25.03    4.26
 -11   1  -5   39.07    4.48
 -12  -1  -5    5.95    4.69
  12   1   5    5.06    5.84
 -12   1  -5    8.95    5.87
 -12  -1  -5   -9.08    3.97
  12   1   5   -5.07    3.72
 -12   1  -5   12.70    4.55
  12  -1   5    1.11    3.85
 -13   1  -5    8.98    5.32
  13   1   5    7.23    5.48
  13  -1   5    1.55    5.55
 -13  -1  -5   -3.86    4.43
 -13  -1  -5   -1.83    4.40
  13   1   5   -3.15    4.02
 -13   1  -5    2.49    4.33
  13  -1   5    3.22    3.79
 -14   1  -5   -1.04    4.36
 -14  -1  -5    0.25    4.40
  14  -1   5    5.49    5.24
 -14   1  -5   -3.66    4.17
 -14  -1  -5   -3.95    4.62
  14  -1   5    1.14    3.54
  14   1   5    7.54    4.37
 -15   1  -5    5.83    4.18
 -15  -1  -5    0.38    4.35
  15   1   5   -7.76    3.82
 -15   1  -5    6.47    4.20
 -15  -1  -5  -13.14    4.81
  15  -1   5   -5.95    3.12
 -16   1  -5   19.74    4.35
  16  -1   5   22.31    5.19
 -16  -1  -5    5.37    4.58
 -16  -1  -5   13.23    4.82
  16  -1   5    0.47    2.98
  16   1   5   13.47    3.75
 -16   1  -5   10.40    3.82
 -17  -1  -5   14.36    4.59
  17   1   5    2.26    5.22
  17  -1   5    6.36    4.99
 -17   1  -5    7.10    4.05
 -17   1  -5   -2.10    3.53
  17  -1   5    0.62    2.80
 -17  -1  -5    7.06    4.46
  17   1   5   -1.22    3.01
 -18  -1  -5   14.95    4.47
 -18   1  -5    1.85    3.95
  18  -1   5   -8.00    4.66
  18   1   5    9.28    5.37
  18  -1   5    3.11    2.62
 -18  -1  -5    4.02    4.22
  18   1   5    1.93    2.76
 -18   1  -5   11.54    3.75
 -19   1  -5    5.75    3.99
  19   1   5   -4.71    5.18
  19  -1   5    5.48    4.76
 -19  -1  -5    7.12    3.88
 -19   1  -5   -0.96    3.58
 -19  -1  -5    6.16    4.10
  19  -1   5    9.57    2.90
  19   1   5   -1.46    2.45
 -20  -1  -5   10.37    3.87
  20  -1   5    8.90    4.79
  20   1   5   14.71    5.07
 -20   1  -5   -2.20    3.77
  20   1   5   -3.13    2.28
  20  -1   5    1.81    2.61
 -20  -1  -5   11.11    3.87
 -20   1  -5    2.74    3.64
 -23   2   5    6.16    6.78
 -23  -2   5    6.44    6.20
  23   2  -5    7.68    4.13
  23  -2  -5    7.72    3.93
 -22   2   5   20.99    7.32
 -22  -2   5    8.46    6.33
  22  -2  -5   11.18    4.32
  22   2  -5   -2.74    3.96
  21  -2  -5    8.62    4.50
 -21   2   5   11.79    5.90
  21   2  -5    3.60    4.39
 -21  -2   5   19.40    6.30
  20   2  -5   20.34    4.83
 -20  -2   5   27.20    6.33
 -20   2   5   25.64    6.13
  20  -2  -5   23.95    5.27
  19   2  -5    6.49    4.49
 -19  -2   5    4.22    6.19
 -19   2   5   25.26    6.51
  19  -2  -5    8.07    4.38
 -18  -2   5    2.57    6.64
 -18   2   5   -0.47    6.59
  18  -2  -5    2.96    4.44
  18   2  -5    2.62    4.73
 -17  -2   5   28.77    7.39
 -17   2   5   23.58    6.63
  17  -2  -5    7.60    5.19
  17   2  -5   16.80    5.28
 -16  -2   5   16.99    7.57
 -16   2   5   16.90    6.40
  16   2  -5    8.42    5.86
  16  -2  -5   22.53    5.36
 -15   2   5  111.59    7.41
  15  -2  -5  102.72    6.13
 -15  -2   5  167.36    8.26
 -14   2   5   72.21    6.71
 -14  -2   5  104.48    7.39
  14   2  -5   50.79    5.65
  14  -2  -5   52.79    5.76
  13  -2  -5   21.58    4.75
 -13   2   5   22.78    5.50
  13   2  -5   15.69    5.28
 -12  -2   5   78.89    7.34
  12   2  -5   82.81    6.53
 -12   2   5   38.54    5.40
  12  -2  -5   40.55    4.47
 -11   2   5   23.21    4.82
  11  -2  -5   28.08    4.42
 -11  -2   5   28.39    6.05
  11   2  -5    7.53    5.29
  10  -2  -5   19.66    4.47
 -10   2   5   19.65    4.46
 -10  -2   5   21.39    5.93
  10   2  -5   -5.16    5.00
  -9   2   5   32.75    4.40
   9  -2  -5   29.84    3.97
   9   2  -5   46.88    5.93
  -9  -2   5   53.99    6.47
  -8   2   5   48.88    5.32
   8  -2  -5   48.55    4.73
   8   2  -5   21.35    5.29
  -7   2   5   23.47    8.12
   7   2  -5   41.93    5.00
   6   2  -5  101.65    5.49
  -6  -2   5  141.05    5.78
   5   2  -5   87.37    5.25
  -5  -2   5   72.93    4.84
  -4  -2   5  246.93    5.53
   4   2  -5  188.22    5.18
  -3  -2   5  419.13    7.29
   3   2  -5  387.18    7.21
   2   2  -5  222.21    9.29
  -2  -2   5  116.10    9.13
  -2   2   5  116.58   14.67
   2  -2  -5  145.99   14.46
  -1   2   5   36.52    9.58
   1  -2  -5   31.23    9.05
   0  -2  -5   99.83    7.34
   0   2   5   80.91    7.53
  -1  -2  -5   38.66    5.78
   1   2   5   36.32    5.84
  -2  -2  -5   17.21    4.91
   2   2   5   26.02    5.00
  -3  -2  -5   19.65    4.75
   3   2   5    6.16    4.69
  -4  -2  -5   49.32    5.03
   4   2   5   53.91    5.17
  -5  -2  -5    9.29    4.96
   5   2   5    7.81    4.92
   6   2   5  301.31    6.67
  -6  -2  -5  329.71    6.80
  -6   2  -5  273.96   23.31
   6  -2   5  314.33   21.09
  -7   2  -5   53.73   12.96
   7   2   5   40.27    4.39
  -7  -2  -5   27.24    4.58
   7  -2   5   51.28   11.38
   8   2   5   32.41    4.17
  -8  -2  -5   30.69    4.47
   8  -2   5   16.44    8.24
  -8   2  -5   13.90    9.23
  -9  -2  -5  191.46    6.10
  -9   2  -5  185.74    8.63
   9   2   5  156.73    5.76
   9   2   5  216.11    8.31
   9  -2   5  168.34    7.69
 -10  -2  -5    7.82    5.33
  10   2   5   -0.98    6.15
  10   2   5    1.06    4.29
 -10  -2  -5   -0.64    4.66
  10  -2   5   -3.58    5.28
 -10   2  -5    4.66    6.08
  11  -2   5   99.26    5.45
 -11  -2  -5   71.80    5.55
  11   2   5   58.65    5.29
 -11   2  -5   85.28    6.32
 -11  -2  -5   75.23    5.58
  11   2   5  109.43    7.25
 -12   2  -5   45.76    5.33
 -12  -2  -5   38.69    5.37
  12   2   5   36.74    5.01
 -12  -2  -5   53.37    5.87
 -13  -2  -5   14.83    5.17
  13   2   5    8.64    4.35
  13  -2   5    7.44    3.86
 -13  -2  -5   16.34    4.76
 -13   2  -5   14.64    5.98
 -13   2  -5   14.97    4.54
 -14  -2  -5   -1.91    4.49
  14   2   5    0.64    5.45
 -14   2  -5    7.72    5.15
  14  -2   5    6.90    5.07
  14   2   5   -7.61    3.65
 -14  -2  -5    7.22    4.74
  14  -2   5    3.55    3.76
 -14   2  -5   -3.05    4.03
 -15   2  -5    9.66    4.48
  15  -2   5   10.91    5.06
 -15  -2  -5   17.03    4.80
 -15   2  -5   -4.89    4.17
  15  -2   5    5.16    3.43
  15   2   5    5.08    3.50
 -15  -2  -5    6.61    4.57
  16   2   5   21.63    5.84
 -16   2  -5   16.45    4.18
  16  -2   5   17.14    5.06
  16  -2   5    6.53    3.05
 -16  -2  -5   18.60    4.74
  16   2   5    1.53    3.14
 -16   2  -5   16.00    4.48
 -17  -2  -5    2.08    4.58
  17   2   5    7.19    5.72
 -17   2  -5   -3.78    3.67
  17  -2   5   12.93    4.72
  17   2   5    7.86    3.03
 -17   2  -5   14.49    4.04
 -17  -2  -5   -2.08    4.16
  17  -2   5   -3.22    2.69
 -18   2  -5   -8.73    3.46
  18  -2   5    6.48    4.74
 -18  -2  -5   12.24    4.22
  18   2   5    4.53    2.67
 -18  -2  -5    8.11    4.02
 -18   2  -5    1.86    3.67
  18  -2   5    1.30    2.47
  19  -2   5    4.94    4.80
  19   2   5   -4.50    5.04
 -19  -2  -5   -5.20    3.72
 -19   2  -5    2.77    3.82
  19   2   5    4.50    2.48
 -19  -2  -5    1.50    3.82
 -19   2  -5    3.77    3.43
  19  -2   5    3.99    2.40
  22  -3  -5   14.41    4.49
  22   3  -5    9.18    4.02
 -22  -3   5   21.32    6.34
 -22   3   5   12.05    5.82
 -21  -3   5    8.04    6.22
 -21   3   5    2.80    5.73
  21   3  -5    2.23    4.14
  21  -3  -5   17.13    4.59
  20   3  -5   14.23    4.49
  20  -3  -5   13.34    4.23
 -20  -3   5   11.26    6.19
  19   3  -5   -3.41    4.50
 -19   3   5    7.92    6.25
  19  -3  -5    6.20    4.25
 -19  -3   5   -0.85    5.98
 -18   3   5   14.15    6.10
  18   3  -5    0.81    4.66
  17  -3  -5   -1.42    4.42
 -17  -3   5   18.89    6.58
  17   3  -5    7.60    4.84
 -17   3   5    7.20    5.84
 -16   3   5   16.14    6.42
  16  -3  -5    6.21    4.71
 -16  -3   5   22.10    7.23
  16   3  -5   -2.74    4.95
 -15   3   5   53.86    6.17
 -15  -3   5   94.01    8.74
  15  -3  -5   56.25    5.50
  14   3  -5   50.58    6.89
 -14  -3   5  114.47    7.68
  14  -3  -5   50.14    4.75
 -14   3   5   53.03    5.62
  13  -3  -5   22.06    4.21
 -13   3   5   20.02    5.31
  13   3  -5   17.73    5.19
 -12   3   5   14.25    4.84
  12  -3  -5   15.84    3.98
 -12  -3   5   24.94    6.63
  12   3  -5    7.49    4.87
  11  -3  -5   23.18    3.95
 -11   3   5   15.78    4.44
 -11  -3   5   37.76    6.77
  11   3  -5   17.82    5.65
 -10  -3   5   57.86    6.42
  10   3  -5   36.66    5.75
   9  -3  -5   10.93    4.62
  -9   3   5   15.05    5.71
   9   3  -5    1.92    4.99
  -9  -3   5    2.23    5.64
  -8   3   5   34.22   10.23
   8  -3  -5   47.91    8.16
  -8  -3   5   39.57    6.29
   8   3  -5   17.31    5.32
  -7  -3   5  149.73    6.65
   7   3  -5  121.35    6.48
   6   3  -5  267.85    7.06
  -6  -3   5  415.74    7.95
   5   3  -5  151.61    5.95
  -5  -3   5  170.55    6.12
  -4   3   5   38.65   11.70
   4   3  -5   42.32    4.82
   4  -3  -5   21.79   11.50
  -4  -3   5   36.06    5.02
   3  -3  -5   75.41    8.51
  -3   3   5   73.41    8.52
  -3  -3   5   92.69    4.57
   3   3  -5   60.46    4.34
   2  -3  -5  220.55    7.70
  -2   3   5  235.65    7.82
   2   3  -5  206.29    5.62
  -2  -3   5  240.71    6.00
  -1   3   5   86.45    5.69
   1  -3  -5   75.83    5.74
   1   3  -5   65.54    6.70
  -1  -3   5   74.63    7.06
   0  -3  -5  260.72    6.57
   0   3   5  234.21    6.51
  -1  -3  -5  376.87    7.00
   1   3   5  294.52    6.82
  -2  -3  -5    2.69    4.79
   2   3   5   11.64    4.72
   3   3   5   33.54    4.53
  -3  -3  -5   41.23    4.59
  -4  -3  -5   10.13    4.26
   4   3   5   10.87    4.19
   5   3   5    3.91    3.70
  -5  -3  -5    0.59    3.92
  -6  -3  -5   -4.72    3.87
   6   3   5    9.41    4.02
   7   3   5   42.16    4.65
  -7  -3  -5   48.34    4.79
  -7  -3  -5   55.57    5.99
   8  -3   5   44.85   17.68
  -8  -3  -5   37.37    5.70
   8   3   5   60.50    6.93
   9   3   5   69.48    6.94
  -9  -3  -5   80.78    5.96
   9  -3   5   72.13   12.10
   9   3   5   63.67    5.55
  -9  -3  -5   56.40    5.74
  -9   3  -5  112.13   14.97
  10   3   5   10.81    6.21
 -10  -3  -5   -8.50    5.01
  10   3   5    5.88    4.59
 -10   3  -5    5.09   10.37
  10  -3   5  -19.46    8.16
  11   3   5   48.99    6.40
 -11  -3  -5   49.62    5.43
  11   3   5   30.19    4.72
 -11  -3  -5   46.97    5.38
  11  -3   5   39.29    6.68
 -11   3  -5   31.67    7.95
 -12  -3  -5   23.05    5.03
  12   3   5    9.05    4.15
 -12  -3  -5   34.34    5.10
  12   3   5   36.21    6.15
 -12   3  -5   19.56    6.75
  12  -3   5   14.75    5.41
  13   3   5    2.22    3.70
 -13  -3  -5   -3.45    4.48
  13   3   5   13.53    5.73
 -13   3  -5  -12.34    5.20
  13  -3   5   -0.73    4.22
 -14  -3  -5    0.40    4.51
  14   3   5   -6.67    5.24
 -14   3  -5   -5.72    5.43
 -14  -3  -5    0.81    4.01
  14   3   5   -0.11    3.34
  14  -3   5    4.62    3.69
 -14   3  -5    6.59    4.55
 -15  -3  -5   13.22    4.74
  15   3   5   15.53    5.64
 -15   3  -5   -6.13    4.79
  15  -3   5    3.30    4.77
 -15  -3  -5    2.48    3.84
  15  -3   5   -4.19    2.96
  15   3   5    2.72    3.09
 -15   3  -5   12.09    4.14
 -16  -3  -5   11.71    4.64
 -16   3  -5    2.74    4.11
  16  -3   5   -3.98    4.64
  16  -3   5    4.67    3.11
 -16  -3  -5   10.81    3.91
  16   3   5    6.54    3.03
 -16   3  -5   -2.26    3.74
 -17  -3  -5    3.96    4.09
 -17   3  -5   -3.41    3.54
  17  -3   5   -3.08    4.44
  17   3   5   -3.44    2.67
 -17  -3  -5   -5.37    3.58
 -17   3  -5    5.65    3.96
  17  -3   5    5.95    2.78
  18  -3   5    8.62    4.57
 -18   3  -5   -1.82    3.51
  18   3   5    3.99    5.35
 -18  -3  -5    9.76    4.19
  18   3   5    1.65    2.69
 -18  -3  -5   -0.49    3.52
 -18   3  -5    2.89    3.85
  18  -3   5   -3.63    2.39
 -19   3  -5   -0.74    3.40
  19  -3   5    3.32    4.42
 -19  -3  -5    9.50    4.17
  19   3   5   -5.85    4.95
  19   3   5   -1.84    2.61
 -19  -3  -5   10.65    3.65
 -19   3  -5    5.06    3.68
  19  -3   5    0.76    2.33
  21   4  -5    3.55    3.96
 -21   4   5    2.99    6.08
 -21  -4   5   12.63    6.07
  21  -4  -5   -3.61    3.54
 -20  -4   5    2.62    6.05
 -20   4   5   12.15    6.00
  20  -4  -5    4.16    3.98
  20   4  -5    1.88    4.15
 -19  -4   5    6.79    6.15
  19  -4  -5    3.02    4.23
  19   4  -5   -2.05    4.25
 -19   4   5    5.16    5.34
  18  -4  -5    8.00    4.10
  18   4  -5    2.40    4.66
 -18  -4   5    2.03    5.95
 -18   4   5   -7.55    5.48
 -17   4   5   16.17    5.96
  17   4  -5    4.30    4.72
  17  -4  -5    4.18    4.29
 -17  -4   5   13.63    6.16
 -16   4   5   14.67    5.34
 -16  -4   5   19.34    6.24
  16   4  -5    9.07    4.80
  15  -4  -5   16.34    4.19
 -15   4   5    0.59    4.79
 -15  -4   5   19.82    6.94
  15   4  -5    4.14    4.97
  14  -4  -5   10.78    4.00
 -14   4   5    8.59    4.90
 -14  -4   5   29.30    7.43
  14   4  -5   17.60    5.58
  13  -4  -5   17.93    3.82
 -13   4   5   27.64    5.03
 -13  -4   5   25.57    6.50
  13   4  -5    0.33    5.72
  12  -4  -5   11.86    3.54
 -12   4   5   14.24    4.22
 -12  -4   5   28.08    6.10
  12   4  -5    7.97    5.40
 -11  -4   5    9.51    5.76
  11   4  -5    2.64    4.92
 -11   4   5    5.39    4.15
  10   4  -5    9.40    5.30
  10  -4  -5   23.38    4.65
  -9  -4   5    2.89    5.76
   9   4  -5   14.80    5.44
   9  -4  -5   16.21    9.28
  -8  -4   5   18.78    5.50
   8   4  -5   18.16    5.22
   7   4  -5   13.07    5.30
  -7  -4   5   41.55    6.14
   6   4  -5  134.85    6.59
  -6  -4   5  179.09    6.83
   6  -4  -5  157.20   10.25
  -6   4   5  163.90   10.04
   5   4  -5   26.46    4.82
  -5   4   5   42.20    6.45
   5  -4  -5   35.81    6.61
   4   4  -5   14.34    4.52
  -4  -4   5   17.32    4.67
  -4   4   5    6.90    5.05
   4  -4  -5   -0.76    4.81
   3   4  -5   19.16    4.19
   3  -4  -5    8.63    4.10
  -3   4   5   11.10    4.26
   2  -4  -5   61.65    4.44
  -2   4   5   80.38    4.69
  -2  -4   5   88.60    4.50
   2   4  -5   80.74    4.47
   1  -4  -5    7.98    4.09
  -1   4   5   23.16    4.48
  -1  -4   5   17.64    3.94
   1   4  -5   10.39    3.87
   0  -4  -5   62.58    5.31
   0   4   5   55.50    5.52
   0  -4   5   65.40    6.14
   0   4  -5   83.69    6.75
  -1  -4  -5 1676.48   12.28
   1   4   5 1451.94   11.62
   2   4   5    8.50    4.67
  -2  -4  -5   -2.47    4.68
  -3  -4  -5   94.10    4.90
   3   4   5   78.09    5.08
   4   4   5   94.40    5.26
  -4  -4  -5   80.05    5.16
  -5  -4  -5   36.44    4.84
   5   4   5   24.97    4.77
   6   4   5   46.35    5.07
  -6  -4  -5   36.98    5.73
   7   4   5   92.22    7.36
  -7  -4  -5   58.56    5.46
   7   4   5   52.61    5.08
  -7  -4  -5   55.42    5.67
  -8  -4  -5   21.27    5.29
   8   4   5   34.04    6.44
   8   4   5   14.09    4.56
  -8  -4  -5   28.10    4.99
  -9  -4  -5   32.03    5.13
   9   4   5   43.04    6.44
  -9  -4  -5   45.88    5.34
   9   4   5   21.27    4.40
 -10  -4  -5    6.97    4.77
  10   4   5   12.94    5.86
  10   4   5   12.28    4.25
 -10  -4  -5    2.75    4.68
 -11   4  -5   19.63   15.63
 -11  -4  -5   18.68    4.92
  11   4   5   21.71    6.01
  11  -4   5   21.40   11.48
  11   4   5   19.01    4.18
 -12  -4  -5    2.82    4.55
  12   4   5   -7.44    5.46
 -12   4  -5   22.41   10.55
 -12  -4  -5   11.08    4.20
  12   4   5   -0.21    3.45
  12  -4   5   11.70    7.57
 -13  -4  -5    4.87    4.55
  13   4   5    5.90    5.44
  13   4   5    7.79    3.48
 -13  -4  -5    3.68    3.84
 -13   4  -5   -7.29    7.85
  13  -4   5   13.57    5.50
  14   4   5    2.54    5.65
 -14  -4  -5    9.13    4.55
  14   4   5   -2.11    3.08
 -14  -4  -5   10.88    3.79
 -14   4  -5   14.13    6.02
  14  -4   5    4.56    4.32
 -15  -4  -5   -1.26    4.46
  15   4   5   -0.29    5.61
 -15   4  -5   -3.78    5.44
 -15  -4  -5   -4.80    3.50
  15  -4   5    2.11    3.46
 -15   4  -5   -2.67    5.12
  16   4   5   11.78    5.59
 -16   4  -5   -8.33    4.65
 -16  -4  -5   12.05    4.08
 -16  -4  -5    3.11    3.74
  16   4   5    0.67    2.94
  16  -4   5    4.33    2.89
 -16   4  -5    2.73    4.55
  17   4   5    2.41    5.30
 -17   4  -5    5.00    4.07
  17  -4   5    7.58    4.54
 -17  -4  -5    4.05    4.04
 -17  -4  -5    4.36    3.61
  17   4   5    5.74    3.10
  17  -4   5   -0.09    2.57
 -17   4  -5   15.08    4.24
 -18   4  -5    8.66    3.67
  18  -4   5    4.50    4.38
 -18  -4  -5   -0.14    4.02
  18   4   5    8.04    5.19
 -18   4  -5   -4.41    3.82
 -18  -4  -5    4.51    3.57
  18   4   5   -4.22    2.92
  18  -4   5   -1.76    2.52
 -20   5   5   12.07    5.43
  20  -5  -5    9.54    4.06
  20   5  -5    7.10    4.15
 -20  -5   5    4.83    5.88
 -19   5   5   -6.80    5.23
  19  -5  -5   -1.14    3.63
 -19  -5   5    6.11    5.96
 -18   5   5    1.66    5.09
 -18  -5   5   -4.98    5.92
  18   5  -5    7.59    4.31
  18  -5  -5    4.25    3.71
  17  -5  -5    7.78    3.91
 -17   5   5    8.08    4.66
  17   5  -5    2.18    4.32
 -17  -5   5    5.05    5.87
 -16   5   5    7.36    4.84
  16  -5  -5    7.98    3.64
  16   5  -5    8.78    4.84
 -16  -5   5   25.38    6.25
 -15   5   5   53.68    5.17
  15   5  -5   11.28    4.96
 -14   5   5    7.36    4.46
  14  -5  -5    9.30    3.66
 -14  -5   5   15.96    6.47
  14   5  -5    4.94    4.82
 -13   5   5    4.94    4.14
  13  -5  -5    1.38    3.31
 -13  -5   5    1.52    6.67
  13   5  -5   -9.71    4.75
 -12   5   5   12.34    4.76
  12  -5  -5    6.43    3.47
 -12  -5   5   12.76    6.47
  12   5  -5   11.66    5.66
 -11   5   5    2.80    6.72
  11  -5  -5   19.28    5.02
  11   5  -5    7.38    5.68
 -11  -5   5   18.45    5.91
 -10  -5   5   44.46    6.01
  10   5  -5    6.13    4.92
  -9   5   5   14.67   12.67
  -9  -5   5   16.44    6.37
   9   5  -5   -3.61    4.92
  -8  -5   5   15.41    5.88
   8   5  -5   16.19    5.56
   8  -5  -5   23.92    7.82
  -8   5   5   18.94    7.55
  -7  -5   5    7.89    5.35
   7   5  -5   12.17    5.19
   7  -5  -5    5.01    5.29
  -7   5   5   10.62    5.43
   6   5  -5    7.66    4.85
  -6  -5   5    7.63    5.33
  -6   5   5    1.03    4.14
   6  -5  -5    1.83    4.14
   5   5  -5   31.71    5.26
  -5  -5   5   32.00    5.43
   5  -5  -5   17.64    3.67
  -5   5   5   26.78    3.97
   4  -5  -5   14.10    3.43
  -4   5   5   14.24    3.75
   4   5  -5    4.93    4.39
  -4  -5   5   17.73    4.72
  -3  -5   5   46.08    4.80
  -3   5   5   43.35    4.10
   3  -5  -5   37.98    3.76
   3   5  -5   30.32    4.44
  -2   5   5    7.95    3.60
   2  -5  -5   21.54    3.56
   2   5  -5   23.97    4.25
   1  -5  -5   25.07    3.63
  -1   5   5   33.10    3.90
  -1  -5   5   39.36    4.04
   1   5  -5   35.90    4.21
   0   5   5   10.46    3.77
   0  -5  -5   14.58    3.60
   0  -5   5    6.07    3.59
   0   5  -5    3.24    3.71
  -1  -5  -5   21.26    3.95
   1   5   5    9.70    4.29
  -1   5  -5    7.11    4.64
   1  -5   5   19.58    4.45
  -2  -5  -5   34.27    4.59
  -2   5  -5   13.93   10.02
   3   5   5    8.16    4.77
  -3  -5  -5   11.03    4.69
  -4  -5  -5   15.43    4.73
   4   5   5   -1.41    4.32
  -5  -5  -5   -1.95    4.81
   5   5   5   -4.69    4.06
  -5  -5  -5   -0.41    4.43
  -6  -5  -5   15.40    4.87
   6   5   5   14.50    6.27
   6   5   5   -0.10    4.08
  -6  -5  -5    6.05    4.39
   7   5   5   19.34    6.02
  -7  -5  -5   16.79    4.76
   7   5   5    6.91    4.06
  -7  -5  -5   12.23    4.39
  -8  -5  -5    2.26    4.37
   8   5   5   21.39    5.86
   8   5   5   14.72    4.07
  -8  -5  -5    1.36    4.17
  -9  -5  -5   20.72    4.80
   9   5   5    2.44    5.68
   9   5   5    8.52    3.91
  -9  -5  -5   12.34    4.39
 -10  -5  -5   -1.59    4.42
  10   5   5    9.23    5.86
  10   5   5    1.92    3.70
 -10  -5  -5    5.89    4.06
 -11  -5  -5   12.84    4.71
  11   5   5    4.46    3.52
 -11  -5  -5    7.53    3.90
 -12  -5  -5   23.73    4.86
  12   5   5   16.81    5.61
  12   5   5    9.31    3.53
 -12  -5  -5   12.20    3.78
  13   5   5   13.69    5.76
  13  -5   5   -3.15    8.97
 -13  -5  -5    5.13    4.50
 -13  -5  -5    3.00    3.56
  13   5   5   12.53    3.62
  14  -5   5   -2.34    6.19
 -14  -5  -5   16.69    4.81
  14   5   5   10.13    5.77
 -14   5  -5    3.74   10.42
 -14  -5  -5   15.97    3.75
  14   5   5   13.50    3.68
 -15   5  -5    6.05    7.97
  15  -5   5    1.18    4.57
  15   5   5   15.03    5.66
 -15  -5  -5   -0.26    3.90
 -15  -5  -5   -1.02    3.32
  15   5   5    0.30    3.20
  16  -5   5    7.57    3.78
 -16   5  -5    5.27    6.18
 -16  -5  -5    7.54    3.52
  16   5   5   -1.73    3.14
  16   5   5    2.61    5.34
 -16  -5  -5    3.11    3.97
 -18   6   5   -0.76    4.31
  18  -6  -5   -4.53    3.36
  18   6  -5   -0.88    4.00
  17  -6  -5    0.09    3.09
 -17   6   5    7.62    4.48
 -17  -6   5   -2.66    5.65
  17   6  -5    1.04    4.16
 -16   6   5    5.21    4.36
  16  -6  -5    4.75    3.31
  16   6  -5   -2.20    4.10
 -16  -6   5    8.30    5.82
 -15   6   5    1.02    3.97
  15  -6  -5    5.83    3.42
  15   6  -5   -3.74    4.47
 -15  -6   5    5.50    6.00
 -14   6   5   37.77    4.54
  14   6  -5   19.62    5.06
 -13   6   5   48.36    5.55
  13   6  -5   15.26    5.03
  12  -6  -5   47.81    5.03
 -12   6   5   44.51    9.06
  12   6  -5   28.42    5.05
 -11   6   5   11.17    9.79
  11   6  -5   10.37    5.21
 -11  -6   5    6.43    6.50
  10  -6  -5   10.55    6.34
 -10   6   5    7.08    5.96
  10   6  -5    0.84    5.67
 -10  -6   5   18.75    5.53
   9  -6  -5   -8.71    4.37
  -9  -6   5  -11.43    5.08
  -8   6   5   16.20    3.77
   8  -6  -5   15.10    3.86
  -8  -6   5   26.84    6.00
   8   6  -5   10.12    4.70
   7  -6  -5   12.20    3.35
   7   6  -5   15.33    5.38
  -6  -6   5   27.79    5.39
   6   6  -5   22.01    5.47
   6  -6  -5    8.61    3.13
  -6   6   5   20.92    3.90
   5  -6  -5   19.98    3.42
  -5   6   5   25.15    3.73
   5   6  -5   12.68    4.80
  -5  -6   5   26.18    5.28
   4  -6  -5    6.48    3.17
  -4   6   5   18.41    3.51
   4   6  -5    5.56    4.91
  -4  -6   5   14.84    5.08
   3  -6  -5   11.16    3.19
  -3   6   5    8.61    3.49
  -3  -6   5   21.27    4.34
   3   6  -5   10.96    4.80
  -2   6   5    4.64    3.87
   2  -6  -5    5.52    3.22
  -2  -6   5    5.25    4.15
   2   6  -5    1.29    4.29
   1  -6  -5   21.86    3.83
  -1   6   5   15.76    4.33
   0  -6  -5    1.61    4.12
   0   6   5   23.21    4.71
   0   6  -5   19.14    4.40
  -1  -6  -5  148.91    6.00
   1   6   5   91.70    5.40
   2  -6   5    0.14    4.51
  -2   6  -5    3.94    4.26
  -3   6  -5   44.57    7.59
   3   6   5   59.70    5.17
   4   6   5   95.46    5.42
  -4  -6  -5  110.52    5.91
   5   6   5   22.93    4.32
  -5  -6  -5   20.45    4.97
  -6  -6  -5   23.99    4.72
   6   6   5   34.32    6.05
   6   6   5   11.48    3.92
  -6  -6  -5   23.66    4.21
  -7  -6  -5   -1.55    4.12
   7   6   5   -5.33    5.51
   8   6   5   -1.05    3.63
  -8  -6  -5    6.76    3.70
  -8  -6  -5    1.73    4.32
   8   6   5    8.38    5.41
  -9  -6  -5   16.09    3.84
   9   6   5    2.82    3.86
  -9  -6  -5   14.48    4.29
   9   6   5   25.71    5.69
 -10  -6  -5   15.01    3.79
  10   6   5    9.90    3.89
 -10  -6  -5    6.77    4.38
  10   6   5   13.27    5.64
  11   6   5   14.12    3.96
 -11  -6  -5   13.05    4.61
  11   6   5    6.41    5.52
 -12  -6  -5    3.99    3.62
  12   6   5    3.31    3.53
 -12  -6  -5    8.49    4.55
  12   6   5    2.94    5.62
 -13  -6  -5   -3.31    3.43
  13   6   5    2.89    3.46
  13   6   5   15.49    5.78
 -13  -6  -5    3.11    4.29
 -14  -6  -5   -1.95    3.62
  14   6   5    3.03    3.49
  14   6   5   13.92    5.67
 -15  -6  -5    1.25    3.62
  15   6   5    6.33    3.45
  15   6   5    2.03    5.17
  15  -6   5   -0.95    8.04
 -15  -6  -5   -1.49    3.69
  15   7  -5   13.01    4.40
 -15  -7   5   24.40    5.98
  15  -7  -5   16.35    3.07
 -15   7   5   17.65    3.98
  14   7  -5   -4.10    4.19
 -14  -7   5    4.81    5.39
  14  -7  -5   -4.25    3.03
 -14   7   5    5.82    4.78
  13   7  -5    1.83    4.52
 -13  -7   5   -4.23    5.48
  13  -7  -5    3.29    4.64
 -13   7   5   11.18    6.90
 -12   7   5   -1.56    4.35
  12  -7  -5    4.65    4.70
 -12  -7   5   15.84    5.69
  12   7  -5    1.57    4.52
  11  -7  -5    5.61    3.40
 -11   7   5    8.56    3.55
 -11  -7   5   22.73    6.14
  11   7  -5   13.85    4.53
  10  -7  -5    6.51    2.83
 -10   7   5    7.07    3.13
 -10  -7   5    1.87    6.32
  10   7  -5    9.65    4.84
   9   7  -5    1.78    5.17
  -9  -7   5    6.74    5.27
   9  -7  -5    2.97    2.54
  -9   7   5    1.95    3.12
  -8  -7   5    1.26    4.86
   8   7  -5    6.31    4.71
  -8   7   5    7.16    3.06
   8  -7  -5    2.91    2.66
  -7  -7   5    3.88    5.21
   7   7  -5   10.63    4.61
   7  -7  -5    5.90    2.76
  -7   7   5   -0.21    2.97
  -6  -7   5    7.38    5.37
   6   7  -5    0.77    4.41
   6  -7  -5    3.55    2.70
  -6   7   5   11.20    3.11
  -5  -7   5   -3.34    4.58
   5   7  -5   -0.40    4.95
  -5   7   5    7.46    3.37
   5  -7  -5    4.05    2.74
   4   7  -5    1.40    4.47
  -4  -7   5    7.62    4.68
   4  -7  -5   -1.94    2.94
  -4   7   5    7.44    3.70
   3   7  -5    7.55    4.40
   3  -7  -5    6.38    3.24
  -3   7   5   -0.55    3.82
  -3  -7   5   -9.13    4.40
   2  -7  -5    0.72    3.64
  -2   7   5    4.27    3.84
   2   7  -5    7.00    4.52
   1  -7  -5    3.43    3.63
  -1   7   5    5.32    3.82
   1   7  -5    2.57    3.96
   0  -7  -5   -4.05    3.52
   0   7   5    5.86    3.71
   0   7  -5    6.14    3.92
   1   7   5   -0.59    3.54
  -1  -7  -5   -1.69    3.43
  -2  -7  -5    1.62    3.46
   2   7   5    1.03    3.45
  -2   7  -5    1.94    3.53
   3   7   5   10.64    3.76
  -3  -7  -5   10.19    3.64
  -3  -7  -5    6.60    4.35
   3  -7   5    7.15    3.67
  -3   7  -5    3.47    3.35
  -4   7  -5    4.74    4.81
  -4  -7  -5   11.97    4.42
   4   7   5    3.16    6.19
  -5  -7  -5    5.12    3.95
   5   7   5   14.75    5.69
   5   7   5    6.99    3.65
  -5  -7  -5    4.85    3.32
  -6  -7  -5   -0.48    3.81
   6   7   5    9.39    5.37
  -6  -7  -5   -2.58    3.24
   6   7   5   -1.94    3.54
  -7  -7  -5    7.75    3.95
   7   7   5   -4.14    4.82
  -7  -7  -5    8.30    3.37
   7   7   5   -1.11    3.71
  -8  -7  -5    6.91    3.96
   8   7   5    4.26    5.26
  -8  -7  -5    1.84    3.21
   8   7   5   -1.98    3.72
   9   7   5   -8.74    5.01
  -9  -7  -5    2.19    3.47
   9   7   5   -2.79    3.74
 -10  -7  -5    7.08    4.14
  10   7   5   -6.54    4.98
 -10  -7  -5   10.40    3.75
  10   7   5    3.50    3.73
 -11  -7  -5    5.64    4.28
  11   7   5    9.58    5.55
 -11  -7  -5    4.27    3.66
  11   7   5   -1.84    3.70
  12   7   5   21.51    5.78
 -12  -7  -5    9.40    3.80
  12   7   5    1.92    3.70
 -12   8   5    0.04    2.61
  12  -8  -5   -0.28    2.23
  12   8  -5   -2.36    3.98
 -12  -8   5    8.06    5.22
  11   8  -5   -1.13    4.06
  11  -8  -5   -2.08    2.03
 -10  -8   5   -4.55    5.36
  10   8  -5    2.77    4.20
 -10   8   5    1.04    2.61
  10  -8  -5   -0.06    2.18
   9   8  -5    2.87    4.07
   9  -8  -5    0.51    2.15
  -9   8   5   -1.07    2.54
   8   8  -5    0.94    4.50
  -8  -8   5    2.69    4.90
   8  -8  -5    1.01    2.20
  -8   8   5   -2.28    2.80
  -7  -8   5   14.18    4.82
   7   8  -5   11.49    5.08
  -7   8   5   16.00    3.42
   7  -8  -5    7.62    2.32
  -6  -8   5    8.23    4.94
   6   8  -5   -2.41    4.07
   6  -8  -5    7.29    2.57
  -6   8   5   14.51    3.49
  -5  -8   5   10.10    5.08
   5   8  -5    5.18    4.19
  -5   8   5   12.70    3.43
   5  -8  -5    6.13    2.83
  -4  -8   5    1.34    4.41
   4   8  -5    6.83    4.48
  -4   8   5   -4.72    3.05
   4  -8  -5   -1.93    2.92
  -3  -8   5    2.17    4.23
   3   8  -5    0.85    4.23
   3  -8  -5   -1.52    2.81
  -3   8   5   -4.22    2.99
   2   8  -5    7.57    4.07
  -2   8   5   -1.71    3.00
   2  -8  -5    2.62    2.95
  -2  -8   5    5.13    4.40
   1  -8  -5    9.90    2.95
  -1   8   5    9.25    3.10
   1   8  -5   -1.52    4.13
  -1  -8   5    2.90    3.74
   0  -8  -5    7.10    2.93
   0   8   5    4.51    3.08
   0   8  -5    2.98    3.65
   0  -8   5    5.27    3.43
  -1  -8  -5    6.32    3.01
   1   8   5   11.37    3.25
  -1   8  -5    3.37    3.50
   1  -8   5   12.60    3.57
   2   8   5   12.16    3.55
  -2  -8  -5    6.62    3.00
   2  -8   5   17.10    3.54
  -2   8  -5   14.35    3.68
  -2  -8  -5    5.41    3.86
  -3   8  -5    6.49    3.40
   3  -8   5    3.18    2.96
  -3  -8  -5    6.04    3.82
   3   8   5    4.78    5.88
   3   8   5   -2.35    3.49
  -3  -8  -5    0.72    2.86
  -4   8  -5   -0.59    3.09
   4  -8   5    6.27    3.17
  -4  -8  -5    3.72    3.50
   4   8   5   19.38    5.59
  -4  -8  -5    7.10    2.97
   4   8   5    1.68    3.73
   5  -8   5   -5.48    5.44
  -5   8  -5    0.51    4.07
  -5  -8  -5    8.01    3.69
   5   8   5    8.06    5.27
  -5  -8  -5    3.93    2.99
   5   8   5   -5.05    3.55
  -6  -8  -5    9.82    3.79
   6   8   5   -0.55    4.70
  -6  -8  -5    7.79    3.38
   6   8   5    8.56    4.03
  -7  -8  -5    5.97    3.73
   7   8   5    6.59    4.90
  -7  -8  -5    2.31    3.37
   7   8   5   15.25    4.10
  -8  -8  -5   -4.37    3.76
   8   8   5   -7.91    4.67
  -8  -8  -5    1.16    3.41
   8   8   5   -2.35    3.75
  -9  -8  -5   -5.04    3.86
   9   8   5    6.34    5.02
  -9  -8  -5   -4.84    3.26
   9   8   5    5.84    3.64
   6   9  -5    0.32    4.24
  -6  -9   5   -0.51    4.45
  -6   9   5    2.55    2.83
   6  -9  -5    2.64    2.45
  -5  -9   5    4.45    4.41
   5   9  -5   12.10    4.34
   5  -9  -5   -2.86    2.30
  -5   9   5    4.69    2.80
  -4  -9   5   -4.51    4.38
   4   9  -5   -6.46    3.67
  -4   9   5   -1.65    2.80
  -3  -9   5   -3.15    4.13
   3   9  -5   -7.61    3.82
   3  -9  -5   -1.24    2.30
  -2  -9   5   12.57    4.26
   2   9  -5   13.99    4.55
   2  -9  -5    6.57    2.62
  -2   9   5   17.70    3.39
  -1   9   5   11.57    3.59
   1  -9  -5   11.28    2.78
   1   9  -5    9.98    3.98
  -1  -9   5   22.55    4.53
   0   9  -5    4.30    3.64
   0  -9   5    2.03    3.63
   0   9   5    4.54    3.58
   0  -9  -5    9.28    2.68
   1  -9   5    7.10    3.28
  -1   9  -5    3.84    3.72
  -1  -9  -5    8.62    3.40
  -1  -9  -5    3.10    2.47
   1   9   5   -1.85    3.53
  -2   9  -5    2.74    3.34
   2  -9   5    5.22    3.25
  -2  -9  -5   -5.38    3.19
   2   9   5    2.01    5.69
  -2  -9  -5    4.16    2.72
   2   9   5    2.56    3.60
   3  -9   5    8.02    3.13
  -3   9  -5    7.10    3.43
  -3  -9  -5    1.11    2.78
   3   9   5   10.95    3.88
  -3  -9  -5    3.94    3.09
   3   9   5    5.66    4.89
 -23   0   6   20.05    8.08
  23   0  -6    9.22    4.47
  22   0  -6   -2.32    4.65
 -22   0   6    2.65    6.38
  21   0  -6   -1.71    5.15
 -21   0   6   29.71    6.63
 -20   0   6   22.39    6.73
  20   0  -6   12.54    4.85
 -19   0   6   36.33    7.62
  19   0  -6   13.46    4.80
 -18   0   6    8.33    7.33
  18   0  -6    8.33    5.43
 -17   0   6   59.64    7.84
  17   0  -6   57.69    6.79
 -16   0   6  134.88    8.67
  16   0  -6  101.50    7.15
  15   0  -6  217.00    8.07
 -15   0   6  257.99    9.90
  14   0  -6  118.12    7.43
 -14   0   6  157.45    9.29
 -13   0   6  515.85   10.63
  13   0  -6  350.12    8.95
 -12   0   6    9.71    5.88
  12   0  -6   13.70    5.01
 -11   0   6  104.19    6.61
  11   0  -6   76.30    5.55
 -10   0   6   95.37    5.92
  10   0  -6   72.09    5.39
  -9   0   6   35.82    5.23
   9   0  -6  103.14    5.99
   8   0  -6   71.79    4.75
  -8   0   6   88.35    5.25
   7   0  -6   24.80    4.41
  -7   0   6   38.79    4.91
   6   0  -6  882.13   11.50
  -6   0   6  475.93    9.39
  -5   0   6   49.60   12.24
   5   0  -6   56.87   11.60
   2   0   6   51.61   24.83
  -2   0  -6   -1.60   23.99
  -3   0  -6  664.68   20.09
   3   0   6  218.90   16.92
   4   0   6    7.92   11.24
  -4   0  -6    2.76   10.89
  -5   0  -6  154.46    9.83
   5   0   6  134.40    9.59
  -6   0  -6   49.73    7.70
   6   0   6   46.48    7.40
  -7   0  -6  114.46    7.04
   7   0   6  101.10    6.53
   8   0   6    8.61    4.92
  -8   0  -6    0.74    5.14
  -9   0  -6   60.96    5.41
   9   0   6   65.26    5.17
 -10   0  -6   57.98    5.14
  10   0   6   55.37    4.90
  11   0   6   70.61    5.28
 -11   0  -6   42.02    5.29
 -12   0  -6    5.36    4.97
  12   0   6   -5.02    4.04
 -13   0  -6   46.16    6.63
  13   0   6   36.20    4.40
 -14   0  -6   15.60    5.76
  14   0   6   14.39    6.29
 -14   0  -6   -2.63    4.17
  14   0   6   -2.62    3.53
 -15   0  -6   25.84    5.32
  15   0   6   34.04    6.13
  15   0   6   20.97    3.60
 -15   0  -6   17.11    4.16
  16   0   6    7.62    5.69
 -16   0  -6   -5.36    4.14
  16   0   6   -2.87    2.92
 -16   0  -6   -7.31    3.71
 -17   0  -6   -2.61    3.85
  17   0   6   10.42    5.18
  17   0   6    0.12    2.84
 -17   0  -6    2.92    3.69
 -18   0  -6    4.75    3.88
  18   0   6   11.77    5.16
 -18   0  -6   -0.11    3.70
  18   0   6    2.63    2.77
 -19   0  -6   -0.45    3.68
  19   0   6    2.66    5.18
  19   0   6   -0.55    2.75
 -19   0  -6    0.84    3.69
  23  -1  -6   14.90    4.97
 -23  -1   6   20.10    7.22
  23   1  -6   -1.46    4.21
 -23   1   6   20.38    6.51
 -22  -1   6    5.20    7.31
  22   1  -6   13.07    4.60
 -22   1   6   13.47    6.09
  22  -1  -6    5.55    4.64
 -21  -1   6   18.17    7.12
  21   1  -6    0.97    4.91
 -21   1   6   23.88    6.67
  21  -1  -6   -0.47    4.35
  20   1  -6   19.28    5.96
 -20   1   6   11.04    7.23
  20  -1  -6    3.34    4.39
 -20  -1   6   28.24    6.80
 -19   1   6    9.01    7.10
  19  -1  -6   19.10    5.41
 -19  -1   6   14.89    6.37
  19   1  -6    6.91    4.89
 -18   1   6    8.41    6.77
  18  -1  -6   17.61    5.54
 -18  -1   6   19.56    7.09
  18   1  -6   10.40    5.05
  17  -1  -6   67.57    6.16
 -17   1   6   79.77    7.86
 -17  -1   6  112.62    8.92
 -16   1   6  137.41    8.81
 -16  -1   6  156.60    9.66
  16  -1  -6  125.63    7.07
 -15   1   6  349.17   10.15
 -15  -1   6  399.01   11.06
  14  -1  -6    0.94    5.42
 -14   1   6   -4.93    6.18
 -14  -1   6  -19.36    7.18
  14   1  -6    4.33    5.87
 -13   1   6  336.39    8.66
 -13  -1   6  534.25   11.79
 -12   1   6  152.19    7.12
 -12  -1   6  180.33    8.17
  12   1  -6  113.84    6.71
  12  -1  -6  124.27    6.16
 -11   1   6  119.48    6.49
 -11  -1   6   80.24    6.60
  11  -1  -6  100.79    5.61
  10   1  -6  227.68    6.95
 -10  -1   6  302.03    8.18
  -9  -1   6  185.77    7.02
   9  -1  -6  180.65    5.76
  -9   1   6  214.95    6.28
   8   1  -6  573.27    9.26
  -8  -1   6  733.10   10.51
   7   1  -6  328.69    6.97
  -7  -1   6  412.97    7.52
  -6  -1   6   95.91    5.12
  -6   1   6  105.64   14.54
   6   1  -6   92.43    5.00
   6  -1  -6  152.13   14.54
  -5  -1   6  450.38    9.01
   5   1  -6  557.93    9.39
  -4  -1   6   51.22    9.74
   4   1  -6   83.61    9.91
   0  -1  -6   36.43   22.25
   0   1   6   13.37   22.58
   1   1   6   -0.19   13.83
  -1  -1  -6    5.60   13.67
  -2  -1  -6  300.21   13.07
   2   1   6  223.25   12.94
  -3  -1  -6  545.95   12.01
   3   1   6  524.16   11.95
  -4   1  -6  127.62   27.23
   4  -1   6   82.52   26.11
  -4  -1  -6   85.72    8.03
   4   1   6   82.86    7.89
  -5  -1  -6  212.58    7.66
   5   1   6  204.28    7.52
   5  -1   6  129.68   16.48
  -5   1  -6  179.07   18.04
  -6   1  -6  -15.24   11.27
   6  -1   6  -10.62   10.94
  -7  -1  -6   84.18    5.59
   7   1   6   76.18    5.37
  -7   1  -6  103.97    9.67
   7  -1   6   74.41    8.60
  -8  -1  -6   52.64    5.00
   8   1   6   61.14    5.28
   8  -1   6   51.78    6.95
  -8   1  -6   50.11    7.47
   9  -1   6   24.02    5.74
  -9   1  -6   18.78    6.27
  -9  -1  -6   28.66    5.09
   9   1   6   12.54    4.54
  10  -1   6   29.96    5.27
 -10   1  -6   33.04    5.73
 -10  -1  -6   35.17    5.11
  10   1   6   27.15    4.56
 -11   1  -6   47.75    5.52
  11  -1   6   41.33    5.02
 -12   1  -6   10.43    4.87
 -12  -1  -6    6.13    6.32
  12   1   6    4.59    6.63
 -12  -1  -6    5.25    4.58
  12   1   6   -4.09    3.91
  12  -1   6    8.05    4.19
 -13  -1  -6   27.03    5.92
  13   1   6   37.02    6.87
  13   1   6    5.05    3.93
 -13  -1  -6   29.92    4.60
 -13   1  -6   14.69    4.51
  13  -1   6   13.40    4.45
 -14  -1  -6   -8.37    4.91
  14   1   6    5.22    6.03
 -14   1  -6    6.95    6.16
 -14   1  -6   -8.22    4.44
  14  -1   6    9.31    3.84
  14   1   6    0.11    3.67
 -14  -1  -6    0.30    3.98
 -15  -1  -6    2.27    4.37
  15   1   6   -1.47    5.75
 -15   1  -6   10.10    5.61
  15  -1   6   12.37    5.71
 -15  -1  -6    0.11    4.02
 -15   1  -6   -0.81    4.35
  15  -1   6    4.44    3.44
  15   1   6    3.40    3.61
 -16  -1  -6   -7.99    3.92
  16   1   6   -1.28    5.39
 -16   1  -6    5.57    4.89
  16  -1   6    8.50    5.32
 -16  -1  -6    2.76    4.12
 -16   1  -6    0.10    3.97
  16  -1   6    1.05    3.06
  16   1   6   -2.28    3.39
 -17  -1  -6    7.46    4.17
  17   1   6   13.67    5.61
 -17   1  -6   -0.84    3.97
  17  -1   6    2.74    5.22
  17   1   6    1.53    3.33
 -17  -1  -6    9.84    4.19
 -17   1  -6    5.13    3.80
  17  -1   6    2.53    2.73
 -18  -1  -6    3.31    3.95
 -18   1  -6    7.35    3.93
  18   1   6    3.61    5.49
  18  -1   6   -2.91    4.98
  18   1   6    7.01    3.23
 -18  -1  -6   13.90    4.34
 -18   1  -6    6.67    3.73
  18  -1   6   -1.60    2.47
 -19  -1  -6    9.72    4.16
 -19   1  -6    0.59    3.58
  19   1   6    4.50    5.16
  19  -1   6    5.94    4.98
  19  -1   6   -1.28    2.31
  19   1   6   -2.60    2.76
 -19   1  -6   -4.82    3.42
 -19  -1  -6   -5.76    4.13
 -23  -2   6    5.91    6.37
 -23   2   6   13.83    6.31
  23   2  -6   -0.75    4.13
  23  -2  -6    5.29    4.41
 -22  -2   6   10.41    6.92
 -22   2   6   24.22    7.08
  22   2  -6   -1.10    4.03
  22  -2  -6    6.09    4.30
 -21  -2   6   23.83    7.65
 -21   2   6    9.19    6.92
  21   2  -6   -0.54    4.43
  21  -2  -6    1.98    4.31
 -20  -2   6   22.09    7.44
 -20   2   6   15.71    6.65
  20   2  -6    6.44    5.09
  20  -2  -6   21.35    5.23
  19   2  -6   -4.21    5.77
 -19   2   6    9.33    6.11
  19  -2  -6    6.76    4.99
 -19  -2   6   12.76    6.56
  18   2  -6   18.86    5.48
 -18   2   6   12.98    6.48
  18  -2  -6   11.32    4.88
 -18  -2   6   23.79    6.77
  17  -2  -6   13.91    5.10
 -17  -2   6   10.08    6.89
  17   2  -6    2.54    4.99
 -17   2   6   -0.92    6.77
 -16   2   6   13.36    6.39
  16  -2  -6   22.15    5.75
 -16  -2   6   39.76    8.04
  16   2  -6   18.56    5.76
 -15   2   6    9.94    5.88
  15  -2  -6   23.26    5.04
 -15  -2   6   35.53    7.80
  15   2  -6   20.54    6.11
 -14   2   6    5.96    5.55
  14  -2  -6    6.47    4.52
  14   2  -6    4.74    5.86
  13  -2  -6   32.46    4.93
 -13   2   6   26.76    5.72
 -13  -2   6   24.36    6.79
  13   2  -6   20.65    5.71
  12  -2  -6   14.96    4.43
  12   2  -6   15.45    5.50
 -11  -2   6   22.03    6.44
 -11   2   6   34.50    5.05
  11  -2  -6   30.80    4.35
  11   2  -6   38.12    6.06
  10   2  -6   27.45    5.22
  10  -2  -6   30.94    4.21
 -10  -2   6   47.36    6.05
 -10   2   6   40.78    4.78
  -9  -2   6   18.30    5.18
   9   2  -6    2.64    4.69
   9  -2  -6   12.60    4.84
  -8  -2   6   16.72    5.36
   8   2  -6   12.10    5.10
   8  -2  -6    9.44    6.97
  -8   2   6   17.28    8.17
   7   2  -6   44.23    5.27
  -7  -2   6   75.45    5.80
  -6  -2   6   89.57    5.28
   6   2  -6   61.65    4.92
   5   2  -6   27.23    4.53
  -5  -2   6   38.81    4.60
   4   2  -6  258.16    7.34
  -4  -2   6  249.16    7.12
   3   2  -6  126.15    8.67
  -3  -2   6   81.58    8.21
   2  -2  -6  233.79   20.54
  -2   2   6  245.22   21.17
   1  -2  -6   86.74   12.60
  -1   2   6   39.49   12.39
   0  -2  -6  140.77   10.38
   0   2   6   54.92    9.74
   1   2   6   18.31    7.78
  -1  -2  -6   14.88    7.17
   2   2   6   -1.35    6.44
  -2  -2  -6   -3.80    6.37
  -3  -2  -6  113.55    6.36
   3   2   6   91.61    6.24
  -4  -2  -6   29.37    5.12
   4   2   6   17.63    5.36
   5   2   6   32.99    4.92
  -5  -2  -6   44.43    5.06
  -6  -2  -6   40.01    5.38
   6   2   6   32.85    5.39
   7  -2   6   40.00   14.17
  -7   2  -6   16.51   16.10
  -7  -2  -6   13.13    4.74
   7   2   6   11.36    4.61
  -8  -2  -6   74.69    5.39
  -8   2  -6  124.83   12.83
   8  -2   6   76.60   10.93
  -9   2  -6  -18.13    9.23
   9  -2   6   -7.99    7.97
 -10   2  -6   41.55    8.05
  10  -2   6   24.08    6.92
 -10  -2  -6   34.80    5.07
  10   2   6   22.82    4.37
 -11   2  -6   -5.44    7.16
  11  -2   6   11.17    6.12
 -11  -2  -6    3.53    6.07
 -11  -2  -6   13.60    4.98
  11   2   6    9.46    4.37
 -12   2  -6   12.19    6.22
  12  -2   6    0.93    4.97
 -12  -2  -6   10.41    5.60
  12   2   6   21.14    6.77
 -12  -2  -6   10.85    4.64
  12   2   6   14.94    4.43
  13  -2   6   12.06    4.30
 -13   2  -6    8.88    5.06
 -13  -2  -6   15.23    5.21
  13   2   6   15.04    6.33
 -13  -2  -6    7.81    4.59
  13   2   6    7.03    4.33
 -14   2  -6    6.54    4.57
 -14  -2  -6   14.09    4.61
  14   2   6   20.80    6.28
  14   2   6    2.72    4.07
 -14  -2  -6    4.96    4.57
  14  -2   6    7.15    3.72
 -15  -2  -6    8.64    4.43
  15   2   6    0.29    5.63
 -15   2  -6   12.09    6.01
  15  -2   6    5.29    3.50
  15   2   6    5.72    3.98
 -15  -2  -6   16.38    4.84
 -15   2  -6    0.47    4.18
 -16  -2  -6   -8.37    4.04
  16   2   6   10.07    5.81
 -16   2  -6   -6.94    5.32
  16  -2   6   -2.40    5.33
  16  -2   6    8.96    3.34
  16   2   6    3.99    3.42
 -16  -2  -6   12.62    4.96
 -16   2  -6    2.58    4.25
  17   2   6    3.36    5.56
 -17   2  -6    1.71    4.87
  17  -2   6    9.26    5.35
 -17  -2  -6    6.64    4.23
 -17   2  -6   13.31    4.46
  17  -2   6    4.93    2.90
  17   2   6    4.61    3.22
 -18  -2  -6   -2.88    4.02
 -18   2  -6   13.41    4.37
  18  -2   6    8.14    5.08
 -18   2  -6   10.63    4.02
 -18  -2  -6    8.56    4.37
  18  -2   6    0.21    2.49
  18   2   6    0.14    2.79
 -19  -2  -6   -1.64    3.92
  19   2   6  -13.74    5.15
 -19   2  -6    9.05    3.94
  19  -2   6    2.53    4.90
 -19   2  -6   10.36    3.87
 -19  -2  -6    1.31    4.12
  19  -2   6   -3.91    2.22
  19   2   6    1.12    2.59
 -22   3   6   -0.19    6.44
 -22  -3   6  -11.85    5.93
  22  -3  -6    4.90    4.14
  22   3  -6   -4.78    4.15
 -21   3   6    6.44    6.12
 -21  -3   6   22.78    6.84
  21  -3  -6   -3.52    4.59
  21   3  -6   11.79    4.59
 -20  -3   6   11.95    7.19
  20  -3  -6    7.78    4.51
  20   3  -6   -1.99    4.38
 -19  -3   6   22.89    8.02
  19  -3  -6    3.50    4.33
 -19   3   6    1.40    6.01
  19   3  -6   13.07    5.13
 -18   3   6   29.45    6.45
  18   3  -6   12.68    5.73
  18  -3  -6   16.57    4.68
 -18  -3   6   28.01    7.09
  17  -3  -6   20.25    5.03
  17   3  -6   -0.73    5.41
 -17  -3   6   19.55    6.52
  16  -3  -6    1.11    4.44
 -16   3   6   30.06    5.61
  16   3  -6   11.38    5.32
 -16  -3   6   32.15    6.87
 -15   3   6    2.19    5.65
  15  -3  -6   13.98    4.49
 -15  -3   6   11.61    7.28
  15   3  -6   18.78    5.53
  14  -3  -6   47.89    4.90
 -14   3   6   34.97    5.55
  14   3  -6   46.71    6.29
  13  -3  -6   12.13    4.36
 -13   3   6   19.84    5.26
 -13  -3   6   17.61    6.66
  13   3  -6   14.77    5.93
  12  -3  -6   36.72    4.19
 -12   3   6   21.82    4.75
 -12  -3   6   40.58    6.67
  12   3  -6   13.29    5.48
  11  -3  -6   83.28    4.72
 -11   3   6   96.14    5.39
 -11  -3   6   63.44    6.87
 -10   3   6   25.37    6.16
  10  -3  -6   28.16    5.03
 -10  -3   6   23.37    6.45
  10   3  -6   12.52    5.59
   9  -3  -6   15.71    7.67
  -9   3   6   13.13    9.80
   9   3  -6    9.18    5.29
  -9  -3   6   18.15    5.78
   8   3  -6  150.34    6.56
  -8  -3   6  210.98    7.14
  -7  -3   6   22.67    5.39
   7   3  -6    8.59    5.09
  -6  -3   6  267.99    7.24
   6   3  -6  154.14    6.29
  -5  -3   6  128.27    5.66
   5   3  -6   99.74    5.28
   4   3  -6   46.34    4.54
  -4  -3   6   54.04    4.74
  -4   3   6   41.30   16.26
   4  -3  -6   93.60   15.58
  -3  -3   6   38.20    5.13
   3   3  -6   29.82    4.92
   3  -3  -6   66.11   10.62
  -3   3   6   59.88   10.96
   2   3  -6  190.44    8.05
   2  -3  -6  208.61    9.75
  -2   3   6  233.93    9.85
   1   3  -6   22.39   15.77
  -1   3   6    6.17    6.86
   1  -3  -6    5.35    6.72
   0  -3  -6  261.12    7.79
   0   3   6  232.74    7.83
   1   3   6   27.59    5.32
  -1  -3  -6   45.59    5.46
  -2  -3  -6    9.28    4.76
   2   3   6   -0.93    4.87
   3   3   6   13.27    4.91
  -3  -3  -6   29.18    4.66
  -4  -3  -6   -4.50    4.43
   4   3   6    4.20    4.42
  -5  -3  -6   19.67    4.55
   5   3   6    9.00    4.36
  -6  -3  -6   13.02    4.43
   6   3   6   17.68    4.39
  -7  -3  -6   28.06    4.72
   7   3   6   33.81    4.55
   8   3   6   38.15    4.57
  -8  -3  -6   45.18    4.95
  -9   3  -6  -30.88   17.59
   9  -3   6   -2.68   13.98
 -10  -3  -6   52.76    5.25
 -10   3  -6  115.40   13.86
  10   3   6   94.37    8.01
  10  -3   6   46.27   10.74
 -11  -3  -6    3.46    4.90
  11   3   6    6.02    4.72
 -11  -3  -6   22.71    5.77
  11   3   6   30.80    7.06
  11  -3   6   23.19    8.32
  12   3   6    1.29    4.54
 -12  -3  -6    3.99    4.83
 -12  -3  -6   10.18    4.98
  12   3   6    8.43    6.31
 -12   3  -6   -2.74    7.61
  12  -3   6    9.90    6.41
  13   3   6    2.11    4.15
 -13  -3  -6    9.99    4.91
 -13  -3  -6    3.71    4.47
  13   3   6    7.81    5.98
  13  -3   6   -8.09    4.91
 -13   3  -6    8.75    6.49
 -14  -3  -6    0.41    4.62
  14   3   6   -4.93    3.60
 -14  -3  -6    8.24    4.54
  14   3   6    1.47    5.56
 -14   3  -6   -7.02    5.46
  14  -3   6    0.54    4.14
  15   3   6    1.21    3.30
 -15  -3  -6   -5.82    4.30
 -15  -3  -6   -5.60    4.19
  15   3   6    6.18    5.83
 -15   3  -6    4.79    4.70
  15  -3   6    0.40    3.47
 -16  -3  -6   -0.14    4.21
  16   3   6   -2.95    2.94
 -16  -3  -6   -4.56    4.14
  16   3   6    6.22    5.76
 -16   3  -6   -9.79    5.82
  16  -3   6    6.33    3.23
 -17  -3  -6    9.71    4.32
  17   3   6    8.68    3.05
  17  -3   6   -0.20    2.85
 -17  -3  -6   -1.28    4.21
  17   3   6    8.38    5.71
 -17   3  -6    4.37    5.53
 -17   3  -6   10.91    4.19
  18   3   6   11.75    5.66
 -18  -3  -6    1.81    4.38
 -18   3  -6    7.07    4.85
  18  -3   6   -4.26    4.96
  18   3   6    6.33    2.76
  18  -3   6    0.55    2.73
 -18  -3  -6    3.29    3.94
 -18   3  -6    5.02    3.77
 -21   4   6    9.06    5.91
  21  -4  -6   10.22    4.19
 -21  -4   6    4.35    6.07
  21   4  -6    1.17    4.34
  20  -4  -6    3.57    4.08
 -20  -4   6    3.18    6.23
  20   4  -6    6.13    4.48
 -20   4   6    1.94    5.99
 -19   4   6    8.35    5.87
 -19  -4   6   -1.25    6.73
  19   4  -6    2.39    4.52
  19  -4  -6    5.06    4.14
 -18   4   6    7.57    5.53
 -18  -4   6   14.93    7.42
  18   4  -6   11.06    5.09
 -17   4   6    1.17    4.96
  17  -4  -6   15.44    4.15
 -17  -4   6   17.30    7.08
  17   4  -6   -3.30    5.34
 -16   4   6   11.16    5.16
  16  -4  -6   17.46    4.07
  16   4  -6   33.34    6.51
 -16  -4   6   33.57    6.78
  15  -4  -6   21.45    4.32
 -15   4   6   16.19    5.17
 -15  -4   6   19.95    6.29
  15   4  -6   10.30    5.11
 -14   4   6    7.99    4.63
 -14  -4   6   19.31    6.56
  14   4  -6   -6.06    4.96
 -13  -4   6    2.60    6.82
  13   4  -6   -1.59    5.49
 -12   4   6   16.57    5.03
  12  -4  -6    9.89    3.91
 -12  -4   6   13.95    6.45
  12   4  -6   20.08    5.94
 -11   4   6   12.70    6.14
  11  -4  -6   25.06    5.38
 -11  -4   6   23.94    6.34
  11   4  -6   14.52    5.70
  10  -4  -6  104.35   10.01
 -10   4   6   72.79   13.80
  10   4  -6   65.52    6.12
 -10  -4   6   90.23    7.12
  -9  -4   6   21.75    6.41
   9   4  -6   25.26    5.74
  -8  -4   6   25.33    5.64
   8   4  -6   16.54    5.44
  -7  -4   6   51.81    5.72
   7   4  -6   27.19    5.22
   6   4  -6   16.37    4.87
  -6   4   6   16.71   12.67
   6  -4  -6   -8.37   12.17
  -5   4   6   71.87    9.53
   5  -4  -6   73.99    8.88
   5   4  -6   91.79    5.63
  -5  -4   6  107.09    5.45
   4   4  -6   98.92    5.72
  -4  -4   6  100.23    5.11
   4  -4  -6  103.18    7.19
  -4   4   6   87.85    7.29
  -3  -4   6   36.39    4.46
   3   4  -6   33.95    4.39
  -3   4   6    4.17    5.68
   3  -4  -6   32.27    5.64
  -2   4   6   -3.92    4.63
   2   4  -6   -4.03    4.01
  -2  -4   6   -2.66    4.29
   1  -4  -6   62.97    5.13
  -1   4   6   50.78    5.54
   1   4  -6   47.43    6.63
  -1  -4   6   53.26    6.16
   0  -4  -6 1637.80   12.66
   0   4   6 1761.90   12.84
  -1  -4  -6   -7.28    4.83
   1   4   6   -1.63    5.26
  -2  -4  -6    9.75    4.52
   2   4   6   -1.86    4.42
  -3  -4  -6   24.52    4.35
   3   4   6    7.51    4.27
  -4  -4  -6   23.62    4.46
   4   4   6    6.07    4.15
   5   4   6   32.62    4.28
  -5  -4  -6   31.51    4.29
  -6  -4  -6   18.78    4.18
   6   4   6    8.57    4.19
  -7  -4  -6    2.19    4.42
   7   4   6    6.76    4.35
  -8  -4  -6   25.23    5.13
   8   4   6   13.41    4.91
  -8  -4  -6   14.61    6.00
   9   4   6   -0.98    4.96
  -9  -4  -6    7.76    5.17
 -10  -4  -6   24.16    5.61
  10   4   6   13.58    4.90
 -10  -4  -6    7.90    5.26
  10   4   6    9.50    6.63
 -11  -4  -6   19.54    5.30
  11   4   6   19.97    4.66
  11  -4   6    3.98   13.80
 -11  -4  -6   17.28    4.95
  11   4   6   26.99    6.71
 -11   4  -6   41.08   19.38
  12   4   6   -1.79    3.87
 -12  -4  -6    3.20    4.73
 -12   4  -6   -9.98   12.46
 -12  -4  -6    0.57    4.35
  12   4   6   10.85    6.04
  12  -4   6   11.35    9.11
  13   4   6    2.55    3.47
 -13  -4  -6   11.60    4.55
 -13  -4  -6   -6.05    4.26
  13   4   6    8.38    5.84
 -13   4  -6   -7.71    9.19
  13  -4   6    0.69    6.81
  14   4   6    2.97    3.19
 -14  -4  -6    3.17    4.14
 -14  -4  -6   -3.55    4.24
  14   4   6    8.60    5.81
  14  -4   6    0.42    5.04
 -14   4  -6   20.69    7.74
 -15  -4  -6    3.36    4.20
  15   4   6    2.51    5.76
 -15  -4  -6    5.73    3.89
  15   4   6    7.22    3.16
 -15   4  -6    7.38    6.16
  15  -4   6   -6.71    4.15
 -16  -4  -6    2.25    4.19
  16   4   6    3.11    5.58
 -16  -4  -6    7.18    3.88
  16   4   6    2.93    2.90
 -16   4  -6    0.75    5.57
  16  -4   6   -4.14    3.48
 -17  -4  -6    0.99    4.35
  17   4   6   13.81    5.83
 -17   4  -6    0.86    6.05
 -17   4  -6   -0.35    4.95
  17  -4   6    0.21    3.08
 -17  -4  -6    5.48    3.89
  17   4   6   -2.58    2.63
 -20   5   6   -0.87    5.20
  20   5  -6    0.20    4.21
 -20  -5   6   14.77    6.01
  20  -5  -6    7.67    3.96
 -19   5   6    8.70    5.03
  19  -5  -6    0.61    3.86
 -19  -5   6   21.04    6.40
  19   5  -6   11.12    4.45
 -18   5   6    6.15    4.95
  18  -5  -6    6.37    3.65
  18   5  -6    2.95    4.58
  17  -5  -6    3.67    3.62
 -17   5   6    2.15    4.94
 -17  -5   6   16.73    7.10
  17   5  -6    6.34    4.69
 -16   5   6   10.87    5.10
  16  -5  -6    8.52    3.65
 -16  -5   6   -2.38    7.05
  16   5  -6   19.06    5.57
  15  -5  -6   18.88    4.28
 -15   5   6   16.47    4.81
  15   5  -6   10.68    6.02
 -15  -5   6   29.39    6.69
 -14   5   6   20.33    4.96
  14  -5  -6   11.48    3.69
  14   5  -6   14.06    5.57
  13  -5  -6    8.94    3.81
 -13   5   6    0.57    5.11
 -13  -5   6   18.94    6.40
  13   5  -6   19.61    5.43
 -12   5   6   17.10    7.15
  12  -5  -6   22.03    5.31
 -12  -5   6   31.96    7.05
  12   5  -6    6.15    5.22
  11  -5  -6   15.19   10.06
 -11  -5   6   -2.73    6.39
  11   5  -6    8.71    5.85
 -10  -5   6   44.85    6.48
  10   5  -6   25.95    6.00
  -9  -5   6   18.06    5.93
   9   5  -6    1.79    5.24
  -8   5   6   23.35   11.02
   8  -5  -6   29.10   11.15
   8   5  -6   23.41    5.67
  -8  -5   6   36.02    6.31
   7   5  -6   62.48    6.16
  -7  -5   6   84.21    6.40
  -7   5   6   46.66    8.17
   7  -5  -6   51.56    8.01
  -6  -5   6    3.65    5.00
   6   5  -6   10.41    4.87
   6  -5  -6   -4.39    5.47
  -6   5   6    7.00    5.98
   5   5  -6   31.73    4.77
   5  -5  -6   35.55    5.06
  -5   5   6   30.00    5.15
   4  -5  -6   -0.78    3.96
  -4   5   6   -0.71    4.29
  -4  -5   6   12.79    4.58
  -3  -5   6   23.74    4.71
   3   5  -6    7.19    4.62
  -2   5   6   29.31    4.67
   2  -5  -6   34.42    3.96
  -2  -5   6   20.89    4.09
   2   5  -6   17.93    4.22
   1  -5  -6   32.01    4.28
  -1   5   6   24.63    4.51
  -1  -5   6   27.57    4.20
   1   5  -6   19.02    4.20
   0  -5  -6    8.16    4.05
   0   5   6    8.98    4.15
   0  -5   6   21.05    5.06
   0   5  -6    8.85    5.40
  -1  -5  -6   33.73    4.44
   1   5   6   24.63    4.51
  -1   5  -6   48.68   10.53
   1  -5   6   71.52   12.26
  -2  -5  -6   22.73    4.20
   2   5   6   23.83    4.21
  -3  -5  -6   26.63    4.30
   3   5   6   25.17    4.49
  -4  -5  -6   -3.61    4.32
   4   5   6   -7.72    4.46
  -5  -5  -6  104.72    5.76
   5   5   6   47.86    5.33
   6   5   6   -0.92    4.83
  -6  -5  -6   20.29    4.86
  -7  -5  -6   -5.81    5.09
   7   5   6   -4.87    4.70
  -8  -5  -6   13.05    5.18
   8   5   6   31.37    6.98
  -8  -5  -6   18.76    5.10
   8   5   6   19.14    4.74
  -9  -5  -6   15.52    5.02
   9   5   6   20.58    6.58
   9   5   6    7.03    4.32
  -9  -5  -6   -0.26    4.69
 -10  -5  -6   15.19    4.57
  10   5   6    1.57    3.81
 -11  -5  -6   11.59    4.48
  11   5   6   21.81    6.13
  11   5   6   12.66    3.74
 -11  -5  -6   -0.52    4.07
 -12  -5  -6    1.78    4.05
  12   5   6    6.87    5.72
  12   5   6   -0.12    3.28
 -12  -5  -6    5.14    3.91
  13  -5   6  -18.82   10.90
 -13  -5  -6   -2.92    3.91
  13   5   6    7.04    5.76
  13   5   6   -2.62    3.02
 -13  -5  -6    6.14    3.80
 -14  -5  -6    9.64    4.30
  14   5   6    0.32    5.73
 -14   5  -6  -15.71   12.38
  14  -5   6    0.67    7.73
 -14  -5  -6   -2.42    3.41
  14   5   6    4.14    3.06
 -15   5  -6  -24.93    9.12
  15  -5   6    9.65    6.13
 -15  -5  -6   -0.48    4.21
  15   5   6   -0.32    5.34
  15   5   6   -2.95    2.62
 -15  -5  -6    1.79    3.62
  16  -5   6    4.71    4.54
 -16   5  -6    4.16    7.72
  16   5   6   -4.17    2.60
 -16  -5  -6    5.58    3.53
 -16  -5  -6   -0.49    4.28
  16   5   6   -7.94    5.35
 -18   6   6   -2.61    4.40
  18  -6  -6    5.14    3.36
  18   6  -6   10.62    4.42
 -18  -6   6    7.24    6.04
 -17   6   6   12.36    4.85
  17  -6  -6    4.66    3.32
 -17  -6   6   17.88    6.44
  17   6  -6   11.71    4.59
 -16   6   6    0.97    4.23
  16  -6  -6    1.54    3.39
  16   6  -6   -8.19    4.27
 -15   6   6   -3.27    4.27
  15  -6  -6   12.84    3.50
 -15  -6   6   14.49    7.33
  15   6  -6   10.53    5.08
  14  -6  -6   12.35    3.73
 -14   6   6    9.08    5.70
  14   6  -6   -1.76    5.23
 -13   6   6    8.53    8.58
  13  -6  -6    9.10    4.92
  13   6  -6  -10.36    5.24
 -13  -6   6   12.91    5.95
 -12  -6   6    5.40    5.81
  12   6  -6    4.66    4.74
 -11  -6   6   15.36    6.31
  11   6  -6    0.15    4.82
  10  -6  -6   37.33    9.64
 -10   6   6    8.52    8.37
 -10  -6   6   22.31    6.42
  10   6  -6    2.30    5.57
  -9  -6   6    5.09    5.60
   9   6  -6    1.43    5.48
   9  -6  -6   -1.88    6.51
  -8  -6   6    6.05    5.33
   8   6  -6    4.38    5.14
   8  -6  -6    6.84    5.05
  -8   6   6    1.85    5.12
   7   6  -6   30.04    5.60
  -7  -6   6   40.11    6.11
   7  -6  -6   17.61    4.61
  -7   6   6   24.22    4.71
   6   6  -6    3.76    5.45
  -6   6   6    3.09    4.24
   6  -6  -6    7.33    3.89
  -6  -6   6    6.36    5.50
  -5  -6   6   99.11    5.84
   5   6  -6   79.41    5.84
  -4   6   6   17.53    4.20
   4  -6  -6    1.70    3.64
  -4  -6   6    8.03    4.76
   4   6  -6   12.22    4.81
   3  -6  -6   38.46    4.21
  -3   6   6   30.98    4.21
  -3  -6   6   45.44    4.97
   3   6  -6   37.32    5.05
   2  -6  -6   -3.11    3.54
  -2   6   6    5.57    3.91
  -2  -6   6    5.77    4.52
   2   6  -6    9.38    4.25
   1  -6  -6    6.23    3.81
  -1   6   6   18.05    3.98
  -1  -6   6   21.42    3.91
   1   6  -6   11.39    4.12
   0   6   6   24.93    4.36
   0  -6  -6   25.85    4.10
   0   6  -6   13.57    4.22
   0  -6   6   23.23    4.01
  -1  -6  -6   10.34    4.20
   1   6   6   10.53    4.78
  -1   6  -6   14.23    4.85
   1  -6   6   14.62    5.12
  -2  -6  -6  120.43    6.33
   2  -6   6  113.22   10.41
  -3  -6  -6  438.09    9.22
   3   6   6  618.98   10.59
  -4  -6  -6  165.76    7.45
   4   6   6   78.90    6.49
   5   6   6   20.55    4.84
  -5  -6  -6   22.21    5.33
  -6  -6  -6    4.82    4.95
   6   6   6    7.11    4.38
  -7  -6  -6   -5.33    4.46
   7   6   6    7.62    6.66
  -7  -6  -6   -5.62    4.20
   7   6   6   -0.92    3.96
  -8  -6  -6   20.97    4.79
   8   6   6   10.73    4.05
  -8  -6  -6   29.18    4.61
  -9  -6  -6    0.14    3.96
   9   6   6    9.22    6.16
   9   6   6    6.85    3.67
  -9  -6  -6    8.06    4.04
 -10  -6  -6    7.75    4.12
  10   6   6    0.78    5.80
  10   6   6    5.83    3.35
 -10  -6  -6   -1.53    3.75
 -11  -6  -6    0.15    4.03
  11   6   6  -11.50    5.39
  11   6   6    1.23    3.17
 -11  -6  -6    0.52    3.62
  12   6   6    0.13    3.04
 -12  -6  -6    4.25    3.52
 -12  -6  -6    5.12    4.01
  12   6   6   14.61    5.72
  13   6   6   -1.99    2.75
 -13  -6  -6    7.18    3.33
 -13  -6  -6   -3.55    3.98
  13   6   6    2.77    5.36
  14   6   6    6.11    2.84
 -14  -6  -6   -1.10    3.26
 -14  -6  -6   -0.32    4.14
  14   6   6   13.54    5.49
  15  -7  -6    2.76    3.53
 -15   7   6   -0.92    5.39
 -15  -7   6   15.61    6.72
  15   7  -6   -2.59    4.22
  14  -7  -6   14.28    4.92
 -14  -7   6   14.32    7.12
  14   7  -6   -7.07    4.25
  13   7  -6    6.05    4.98
 -13  -7   6    1.04    6.01
 -12   7   6   -3.08    6.79
  12  -7  -6    1.17    6.81
  12   7  -6   14.07    5.84
 -12  -7   6   11.08    5.74
 -11   7   6    7.03    5.01
  11  -7  -6    2.80    4.89
 -11  -7   6    6.64    5.19
  11   7  -6    3.47    4.41
  10  -7  -6   11.01    3.92
 -10   7   6    4.71    4.13
  10   7  -6    7.79    4.54
   9  -7  -6    3.15    3.25
  -9   7   6    1.72    3.55
  -9  -7   6   14.87    5.88
   9   7  -6   -3.18    4.74
   8  -7  -6    4.62    2.96
  -8  -7   6    6.58    5.36
   8   7  -6   -4.31    5.09
  -7  -7   6    7.56    5.20
   7   7  -6    3.05    4.67
   7  -7  -6    3.19    2.91
  -7   7   6   -2.20    3.75
   6   7  -6   13.73    4.77
  -6  -7   6   23.35    5.49
   6  -7  -6    6.20    3.22
  -6   7   6    8.05    3.68
   5   7  -6    7.91    4.98
   5  -7  -6    4.74    3.16
  -5   7   6    6.42    3.70
  -5  -7   6    0.83    5.10
   4  -7  -6    2.51    3.11
  -4   7   6    3.16    3.46
   4   7  -6    3.99    4.83
  -3   7   6    0.97    3.51
   3   7  -6    4.85    4.23
  -3  -7   6   -0.09    4.21
  -2   7   6   -4.29    3.60
   2  -7  -6   -1.36    3.02
   2   7  -6   -3.05    4.02
   1  -7  -6    7.25    3.50
  -1   7   6    9.27    4.04
   1   7  -6   16.81    4.32
   0  -7  -6   17.87    4.09
   0   7   6   20.95    4.74
   0   7  -6   22.04    4.56
   0  -7   6   -3.96    3.65
   1   7   6   12.40    4.60
  -1  -7  -6    3.11    4.05
   1  -7   6    9.23    3.65
  -1   7  -6    4.61    3.69
   2   7   6   13.60    4.38
  -2  -7  -6    9.47    4.33
   2  -7   6   -1.68    4.20
  -2   7  -6    3.94    3.88
  -3  -7  -6    3.54    4.20
   3   7   6    1.92    3.99
  -3   7  -6    6.21    5.42
   3  -7   6   -2.17    6.99
  -4  -7  -6    1.92    3.99
   4   7   6  -10.53    3.62
  -5  -7  -6   10.05    4.58
   5   7   6   11.98    3.68
  -5  -7  -6   -5.47    3.67
  -6  -7  -6   -4.42    3.95
   6   7   6   -0.16    6.53
   6   7   6    6.39    3.58
  -6  -7  -6   -2.91    3.52
  -7  -7  -6    9.15    4.17
   7   7   6    8.85    6.12
   7   7   6   -4.49    3.15
  -7  -7  -6    4.68    3.67
  -8  -7  -6   12.04    3.83
   8   7   6   -6.97    5.48
   8   7   6    7.43    3.23
  -8  -7  -6    8.37    3.56
   9   7   6   -7.66    5.25
  -9  -7  -6   -3.17    3.25
 -10  -7  -6   13.56    3.98
  10   7   6   -0.48    5.26
  10   7   6    6.07    3.16
 -10  -7  -6   12.80    3.38
 -11  -7  -6    8.82    3.94
  11   7   6    3.24    5.32
  11   7   6   -1.08    2.97
 -11  -7  -6   11.73    3.37
  12   7   6   -4.80    5.21
 -12   8   6    3.11    3.48
  12  -8  -6    0.86    3.15
  12   8  -6    3.54    4.57
 -12  -8   6   18.99    6.11
  11  -8  -6    4.34    2.75
 -11   8   6   -2.40    3.18
  11   8  -6    0.59    4.88
 -11  -8   6    5.19    5.39
 -10   8   6   -0.06    3.18
  10  -8  -6    0.67    2.39
 -10  -8   6    4.73    5.16
  10   8  -6    2.71    4.55
  -9  -8   6    8.56    5.51
   9   8  -6   -3.50    4.23
   9  -8  -6    2.69    2.32
  -9   8   6    7.99    3.28
  -8  -8   6   16.87    5.87
   8   8  -6   -1.37    4.32
   8  -8  -6    9.13    2.74
  -8   8   6    7.62    3.22
   7   8  -6    2.00    4.85
   7  -8  -6    5.46    2.64
  -7   8   6    5.25    3.20
  -6  -8   6    1.91    4.96
   6   8  -6   17.81    4.89
   6  -8  -6    3.85    2.67
  -6   8   6    7.87    3.24
   5   8  -6   19.12    4.67
  -5  -8   6   27.92    5.17
  -5   8   6   19.85    3.63
   5  -8  -6   10.98    2.81
   4   8  -6    2.51    4.48
  -4  -8   6    6.23    4.80
  -4   8   6   10.92    3.78
   4  -8  -6    7.92    2.76
  -3  -8   6   -9.43    4.02
   3   8  -6   -8.31    4.31
   3  -8  -6    1.82    2.82
  -3   8   6   -0.66    3.82
  -2  -8   6    8.73    4.00
   2   8  -6    4.90    4.07
  -2   8   6   11.01    3.91
   2  -8  -6    1.10    3.14
   1   8  -6   -0.10    3.79
  -1  -8   6   14.36    4.19
  -1   8   6   13.92    3.94
   1  -8  -6    4.65    3.48
   0   8  -6   22.58    4.24
   0  -8   6   17.08    3.95
   0  -8  -6    3.31    3.52
   0   8   6    9.40    3.70
  -1   8  -6    4.07    3.87
   1  -8   6   -1.21    3.31
  -1  -8  -6    5.29    3.50
   1   8   6    1.80    3.43
  -2   8  -6   -1.74    3.56
   2   8   6   10.04    3.56
  -2  -8  -6   11.44    3.60
   2  -8   6   15.15    3.39
  -3  -8  -6   19.49    3.66
   3  -8   6   13.19    3.80
  -3   8  -6    6.92    3.58
   3   8   6   10.37    3.56
   4  -8   6    1.78    5.50
  -4   8  -6   -5.26    4.67
  -4  -8  -6   10.66    4.09
  -4  -8  -6    7.83    3.48
   4   8   6   -0.21    3.41
  -5  -8  -6    9.28    3.86
   5   8   6    3.80    6.46
  -5  -8  -6    9.05    3.55
  -6  -8  -6   16.43    3.50
  -6  -8  -6    8.73    3.95
  -7  -8  -6    3.36    3.73
   7   8   6    9.75    5.79
   7   8   6   10.65    3.15
  -7  -8  -6   11.53    3.27
  -8  -8  -6   -1.44    3.48
   8   8   6    0.49    5.32
   8   8   6    2.81    3.18
  -8  -8  -6    3.50    2.99
  -5  -9   6   13.20    4.72
   5   9  -6    9.65    4.53
   5  -9  -6    1.02    2.64
  -5   9   6    0.90    3.37
   4   9  -6    0.71    4.19
  -4  -9   6   -1.61    4.35
  -4   9   6    1.56    3.30
   4  -9  -6    7.66    2.90
   3   9  -6    3.97    4.07
  -3  -9   6    5.35    4.57
  -3   9   6    0.46    3.15
   3  -9  -6   -3.61    2.69
   2   9  -6   -1.19    4.15
  -2  -9   6   14.22    4.19
   2  -9  -6   -0.77    2.87
  -2   9   6    8.74    3.36
  -1  -9   6    8.24    3.83
   1   9  -6    8.29    4.08
   1  -9  -6    3.74    2.88
  -1   9   6    6.52    3.27
   0   9   6   -1.35    2.95
   0  -9   6    8.39    3.70
   0   9  -6    9.10    3.75
   0  -9  -6    5.78    2.85
   1   9   6   -1.53    3.00
  -1  -9  -6   -0.11    2.70
  -1   9  -6    8.55    3.73
   1  -9   6    7.29    3.34
 -23   0   7   -1.65    6.74
  23   0  -7    1.65    4.23
 -22   0   7   25.61    7.85
  22   0  -7   -2.62    4.32
 -21   0   7   12.89    7.61
  21   0  -7    9.86    5.08
 -20   0   7   23.65    7.48
  20   0  -7   12.25    5.51
 -19   0   7   22.52    6.94
  19   0  -7    6.20    5.30
 -18   0   7   28.51    7.37
  18   0  -7   11.92    5.32
  17   0  -7    5.41    5.77
 -17   0   7    7.48    7.42
 -16   0   7   51.61    8.16
  16   0  -7   41.56    6.67
  15   0  -7    9.20    5.99
 -15   0   7   23.71    7.10
 -14   0   7   14.57    6.65
  14   0  -7   12.69    5.61
  13   0  -7   44.57    5.84
 -13   0   7   72.34    7.09
  12   0  -7   28.30    5.48
 -12   0   7   21.18    6.01
 -11   0   7   42.85    6.13
  11   0  -7   32.32    5.15
  10   0  -7   44.58    4.99
 -10   0   7   53.48    5.51
  -9   0   7   14.32    4.82
   9   0  -7   13.67    4.48
   8   0  -7   40.36    5.00
  -8   0   7   42.71    5.62
  -7   0   7    0.55    6.40
   7   0  -7   -2.59    6.84
  -6   0   7   44.87   11.20
   6   0  -7   47.12   10.82
   2   0   7   64.68   31.97
  -3   0  -7  -29.13   19.47
   3   0   7  -33.03   19.41
  -4   0  -7   18.18   13.19
   4   0   7   63.95   13.72
  -5   0  -7   -3.94   10.54
   5   0   7   27.46   10.74
  -6   0  -7   35.86    8.62
   6   0   7   43.99    8.44
  -7   0  -7   -1.47    7.17
   7   0   7    9.11    6.80
  -8   0  -7   57.09    6.62
   8   0   7   25.13    5.93
  -9   0  -7   51.51    6.40
   9   0   7   32.50    5.62
 -10   0  -7   14.80    5.77
  10   0   7   25.52    5.30
 -11   0  -7    7.42    5.28
  11   0   7    5.04    4.84
 -12   0  -7   28.46    5.29
  12   0   7   24.61    5.09
 -13   0  -7   -8.21    5.03
  13   0   7    5.15    4.55
 -14   0  -7   32.62    5.23
  14   0   7    8.79    4.03
 -15   0  -7   11.02    6.33
 -15   0  -7    4.00    4.34
  15   0   7    7.55    3.46
 -16   0  -7  -10.72    5.69
  16   0   7   -2.35    5.94
 -16   0  -7   -1.13    3.87
  16   0   7   -0.59    3.01
 -17   0  -7   -2.21    5.33
  17   0   7    0.34    5.79
 -17   0  -7    7.68    3.79
  17   0   7    3.91    2.75
 -18   0  -7   11.10    4.49
  18   0   7   -0.34    5.52
  18   0   7    6.00    2.69
 -18   0  -7    2.14    3.65
 -19   0  -7    6.46    4.16
  19   0   7   -6.63    5.43
  19   0   7   -3.35    2.32
 -19   0  -7   -0.96    3.55
  23   1  -7   14.09    5.25
 -23   1   7    4.31    6.91
  23  -1  -7    5.78    4.24
 -23  -1   7   18.73    6.78
 -22   1   7   16.37    7.41
  22  -1  -7   14.67    5.08
 -22  -1   7   26.14    6.96
  22   1  -7    2.99    4.37
 -21   1   7    0.56    6.61
  21  -1  -7   -4.98    4.78
 -21  -1   7    9.71    7.42
  21   1  -7   -5.73    4.32
 -20   1   7    5.67    6.73
  20  -1  -7    9.85    5.13
  20   1  -7   -0.72    4.82
 -19   1   7    0.87    6.73
  19  -1  -7   -3.59    4.82
 -19  -1   7   20.42    7.49
  19   1  -7    4.92    5.65
  18  -1  -7    9.40    5.21
 -18  -1   7    1.41    6.84
  18   1  -7    2.66    5.43
 -18   1   7   21.35    7.27
 -17   1   7   11.30    7.06
 -17  -1   7   20.21    7.21
  17   1  -7    1.47    5.49
  17  -1  -7   13.42    5.68
  16  -1  -7   10.34    5.56
 -16   1   7   17.48    6.49
  16   1  -7   11.50    5.84
  15  -1  -7   24.26    5.60
 -15   1   7   16.63    6.41
 -15  -1   7   21.28    8.01
  15   1  -7   21.42    6.26
 -14   1   7   54.31    6.92
  14   1  -7   58.54    6.83
  14  -1  -7   56.08    5.89
 -14  -1   7   77.07    7.86
 -13   1   7  132.73    7.05
  13  -1  -7  128.76    6.32
 -13  -1   7  137.14    7.86
  12  -1  -7   40.06    5.43
 -12   1   7   66.96    6.52
  12   1  -7   52.99    5.67
 -12  -1   7   69.94    6.81
  11  -1  -7   97.82    5.56
 -11   1   7   78.90    5.73
 -11  -1   7   76.68    6.57
  10  -1  -7   28.43    4.67
 -10  -1   7   29.36    5.91
  10   1  -7   18.68    4.94
   9   1  -7   92.26    5.86
  -9   1   7   57.64    6.25
   9  -1  -7   68.66    5.81
  -9  -1   7  113.61    6.07
  -8   1   7  127.59    8.46
   8  -1  -7   52.26    7.16
   8   1  -7   62.24    5.00
  -8  -1   7   80.75    5.55
  -7  -1   7   35.65    5.02
  -7   1   7   44.61   14.30
   7  -1  -7   33.12   12.96
   7   1  -7   48.36    4.85
  -6  -1   7   -0.22    6.56
   6   1  -7   -6.42    6.40
  -5  -1   7    1.78    9.48
   5   1  -7   17.38    8.86
   0  -1  -7  288.69   30.22
   0   1   7  172.12   30.56
   1   1   7   22.60   18.73
  -1  -1  -7  127.79   19.15
  -2  -1  -7  118.34   13.81
   2   1   7   97.82   14.29
   3   1   7  -16.00   10.70
  -3  -1  -7   27.47   10.75
   4   1   7    5.81    8.35
  -4  -1  -7   13.39    8.08
   5  -1   7   12.47   18.35
  -5   1  -7   11.20   19.56
   5   1   7  -14.90    6.83
  -5  -1  -7  -13.77    7.05
  -6   1  -7   38.58   13.95
  -6  -1  -7   21.58    6.17
   6   1   7   29.97    5.97
   6  -1   7   22.42   12.74
   7  -1   7   67.85   10.82
  -7   1  -7   45.15   10.88
  -7  -1  -7   48.40    5.87
   7   1   7   37.70    5.62
   8  -1   7   17.42    7.94
  -8  -1  -7   28.43    5.30
  -8   1  -7   17.83    8.51
   8   1   7   35.08    5.24
   9  -1   7   13.58    6.84
  -9   1  -7    9.96    7.69
   9   1   7   28.92    4.80
  -9  -1  -7   21.06    5.00
 -10  -1  -7   94.50    6.33
  10   1   7   76.74    5.85
 -10   1  -7  116.40    8.14
  10  -1   7   74.79    7.06
  11  -1   7   -0.46    5.48
 -11   1  -7  -10.39    6.28
 -11  -1  -7    8.49    5.66
  11   1   7   11.42    4.95
  12  -1   7   13.41    5.03
 -12   1  -7   22.25    5.95
 -12  -1  -7   29.93    5.44
  12   1   7   20.10    4.59
 -13   1  -7    6.77    4.96
 -13  -1  -7   12.44    4.81
  13   1   7   -2.12    4.02
  13  -1   7    7.90    4.44
 -14  -1  -7    1.70    6.22
 -14   1  -7    0.32    4.52
  14  -1   7   -0.99    3.85
 -14  -1  -7    0.33    4.22
  14   1   7    2.63    3.60
 -15  -1  -7  -11.44    5.52
  15   1   7    3.59    6.31
  15  -1   7    5.45    3.75
 -15   1  -7    5.21    4.29
 -15  -1  -7   -3.78    3.99
  15   1   7    3.22    3.19
 -16  -1  -7    4.61    5.32
  16   1   7   -5.25    5.92
 -16   1  -7    4.41    6.38
  16   1   7    2.63    2.93
 -16   1  -7   -0.81    4.19
  16  -1   7   -1.90    3.18
 -16  -1  -7    1.04    3.83
 -17  -1  -7    2.61    4.37
  17   1   7    8.70    5.84
 -17   1  -7   11.85    5.84
  17  -1   7   -1.66    5.76
 -17  -1  -7   -2.69    3.55
 -17   1  -7   -3.89    4.00
  17   1   7    0.13    2.75
  17  -1   7    5.98    2.92
 -18  -1  -7   -0.83    3.89
  18   1   7    1.02    5.59
 -18   1  -7    5.94    5.20
  18  -1   7    8.05    5.74
 -18  -1  -7   -2.11    3.49
 -18   1  -7    0.71    3.87
  18   1   7   -3.32    2.77
  18  -1   7    0.12    2.50
 -19  -1  -7   -0.51    3.76
 -19   1  -7   -8.46    4.23
  19   1   7   17.26    5.66
  19  -1   7    8.11    5.42
 -19  -1  -7    2.92    3.78
 -19   1  -7    2.23    3.69
  19   1   7    0.45    2.83
  19  -1   7    1.10    2.42
  23   2  -7    2.94    4.96
 -23   2   7   15.00    6.95
  23  -2  -7  -12.43    4.24
 -23  -2   7   11.10    6.67
  22   2  -7    9.95    5.54
 -22   2   7   10.76    6.60
  22  -2  -7   17.41    5.17
 -22  -2   7   25.68    6.87
 -21   2   7   34.80    7.05
  21  -2  -7   32.63    4.98
 -21  -2   7   33.07    6.73
  21   2  -7   -4.59    4.68
  20  -2  -7    8.65    4.61
 -20  -2   7   13.41    6.95
  20   2  -7    7.33    4.60
 -20   2   7   -0.88    6.49
 -19   2   7   -7.22    6.62
 -19  -2   7   11.26    7.59
  19   2  -7   13.63    5.20
  19  -2  -7    5.33    4.86
  18  -2  -7   21.79    5.31
 -18  -2   7   26.76    7.67
  18   2  -7    5.63    5.94
 -17   2   7   11.71    6.09
  17  -2  -7   10.78    4.88
 -17  -2   7   25.23    7.35
  17   2  -7   19.51    6.25
  16  -2  -7   17.62    4.94
 -16   2   7   27.91    6.18
 -16  -2   7   40.12    7.50
  16   2  -7   28.58    6.34
  15  -2  -7    6.91    5.07
 -15   2   7   11.92    6.35
 -15  -2   7   30.93    7.68
  15   2  -7    5.48    5.99
  14  -2  -7   80.22    5.57
 -14  -2   7  111.18    8.66
 -14   2   7   80.38    6.69
  13   2  -7   13.40    6.26
 -13   2   7   42.13    5.62
  13  -2  -7   38.76    5.41
 -12   2   7  114.25    5.97
 -12  -2   7  100.08    7.34
  12  -2  -7   84.30    5.17
  12   2  -7   98.97    6.53
  11   2  -7   27.38    5.47
 -11  -2   7   33.95    5.92
 -11   2   7   32.23    5.17
  11  -2  -7   24.14    4.63
 -10  -2   7   -6.18    5.77
  10   2  -7    1.76    5.08
 -10   2   7    5.25    5.97
   9   2  -7  124.64    6.25
  -9  -2   7  160.29    6.75
   9  -2  -7  162.48    8.50
  -9   2   7  131.10    9.22
  -8  -2   7   29.45    5.29
   8   2  -7   35.84    5.53
   7   2  -7   38.01    4.85
  -7  -2   7   60.25    5.22
   6   2  -7   44.88    4.89
  -6  -2   7   20.49    4.75
  -5  -2   7  620.10   10.29
   5   2  -7  685.70   10.51
   4   2  -7   17.12    8.24
  -4  -2   7   19.17    8.38
   3   2  -7  233.48   18.37
  -2   2   7    9.11   25.30
   2  -2  -7   29.79   23.97
   1  -2  -7  133.77   16.59
  -1   2   7   71.29   16.94
   0  -2  -7   26.41   11.42
   0   2   7   49.79   12.24
  -1  -2  -7  -16.67    8.95
   1   2   7   15.32    9.23
   2   2   7   28.00    7.93
  -2  -2  -7   16.36    7.53
  -3  -2  -7   31.62    6.89
   3   2   7   -1.72    6.81
  -4  -2  -7   35.37    6.02
   4   2   7   25.11    5.95
   5   2   7   34.56    5.49
  -5  -2  -7   37.21    5.55
  -6  -2  -7   19.62    5.24
   6   2   7   20.04    5.05
  -7   2  -7   64.49   20.30
   7  -2   7  -13.61   16.52
   7   2   7   19.89    5.05
  -7  -2  -7   22.67    4.70
  -8  -2  -7   60.13    5.78
   8   2   7   53.07    5.41
  -8   2  -7   17.81   14.55
   8  -2   7   78.06   13.60
  -9   2  -7   20.78   11.12
   9  -2   7   14.70   10.14
   9   2   7   12.37    4.61
  10  -2   7   23.74    8.29
 -10   2  -7   34.20    9.81
 -10  -2  -7   28.50    5.25
  10   2   7   15.90    4.61
 -11   2  -7   12.77    8.09
  11  -2   7   14.90    7.12
 -11  -2  -7   20.76    4.92
  11   2   7   11.90    4.39
 -12   2  -7    9.45    7.07
  12  -2   7   -1.87    5.85
 -12  -2  -7   -2.66    6.50
  12   2   7   -1.77    3.88
 -13   2  -7   17.46    6.16
  13  -2   7    1.21    4.79
 -13  -2  -7    5.47    6.28
  13   2   7    9.77    6.78
  13   2   7    5.84    3.69
 -13  -2  -7    8.95    4.25
  14  -2   7    5.92    4.14
 -14  -2  -7   -7.85    5.39
  14   2   7   16.96    6.82
  14   2   7    4.16    3.52
 -14  -2  -7    2.14    4.04
  15  -2   7    8.83    3.73
 -15   2  -7    7.04    4.74
 -15  -2  -7    5.15    5.23
 -15  -2  -7    9.57    4.11
  15   2   7   -1.83    3.41
 -16   2  -7   10.10    4.49
 -16  -2  -7    0.33    4.29
  16   2   7    5.55    5.97
 -16  -2  -7   -0.13    4.11
  16   2   7   -4.57    3.22
  16  -2   7    3.14    3.07
 -17  -2  -7    0.50    4.04
  17   2   7   -6.38    5.87
  17  -2   7    0.24    3.05
 -17  -2  -7    2.97    4.24
  17   2   7    3.81    3.50
 -17   2  -7    2.28    4.04
 -18  -2  -7    6.87    4.02
  18   2   7   -2.69    5.44
 -18   2  -7   13.63    5.97
 -18   2  -7    6.53    4.03
  18   2   7   -3.19    3.00
  18  -2   7   -1.95    2.73
 -18  -2  -7    5.99    4.22
 -22  -3   7   -2.42    6.85
 -22   3   7   -2.39    6.14
  22  -3  -7   -2.09    4.23
  22   3  -7    7.43    5.18
  21  -3  -7    5.80    4.30
 -21   3   7    2.77    6.45
  21   3  -7    9.27    5.60
 -21  -3   7   12.10    6.54
 -20   3   7   21.80    6.52
  20   3  -7    4.22    4.71
 -20  -3   7   17.41    6.62
  20  -3  -7    1.96    4.50
  19  -3  -7    7.40    4.70
 -19   3   7    1.05    5.83
 -19  -3   7   19.03    6.93
  19   3  -7    5.56    4.79
 -18   3   7   -1.52    5.54
  18  -3  -7    8.18    4.37
 -18  -3   7   11.72    7.48
  18   3  -7    0.18    4.83
 -17   3   7    2.71    5.72
  17  -3  -7   -3.15    4.20
 -17  -3   7   -2.53    7.32
  16  -3  -7   16.59    4.72
 -16   3   7   29.13    5.82
 -16  -3   7   39.53    7.51
  16   3  -7   21.71    6.35
 -15   3   7    2.59    5.78
  15  -3  -7   11.54    4.61
 -15  -3   7   10.03    6.82
  15   3  -7   11.68    5.82
 -14   3   7    7.25    5.13
  14  -3  -7    3.30    4.74
 -14  -3   7   -3.18    6.74
  14   3  -7    2.05    5.79
  13  -3  -7   39.99    4.60
 -13   3   7   26.91    5.37
  13   3  -7   28.20    6.17
 -12   3   7   15.30    5.39
  12  -3  -7   12.46    4.51
  11   3  -7   19.88    5.75
 -11  -3   7   24.60    6.37
 -11   3   7   26.31    6.89
 -10  -3   7   61.81    6.46
 -10   3   7   98.05   10.91
  10  -3  -7   83.07    8.61
  -9  -3   7  132.90    7.11
   9   3  -7   83.28    6.06
   8   3  -7   22.77    5.17
  -8  -3   7   35.79    5.69
  -7  -3   7  148.53    7.00
   7   3  -7  140.46    6.69
  -6  -3   7  293.38    7.21
   6   3  -7  196.91    6.62
  -5  -3   7   65.95    5.29
   5   3  -7   43.02    5.00
  -4   3   7  -24.63   20.34
   4  -3  -7   15.15   19.62
  -3  -3   7   -1.91    6.97
   3  -3  -7   18.29   12.79
  -3   3   7   30.09   13.88
   2   3  -7  103.54   16.53
  -2  -3   7   26.85   14.74
   2  -3  -7   83.93   10.49
  -2   3   7   21.88   10.38
   1  -3  -7   23.07    8.14
  -1   3   7    4.61    8.04
   0  -3  -7   70.41    7.51
   0   3   7   37.35    7.53
  -1  -3  -7   44.52    6.50
   1   3   7   21.64    6.49
   2   3   7   27.04    5.75
  -2  -3  -7   38.74    5.63
  -3  -3  -7   41.32    5.18
   3   3   7   18.17    5.33
   4   3   7   -5.64    4.62
  -4  -3  -7   16.95    4.77
  -5  -3  -7   13.04    4.68
   5   3   7    3.73    4.93
  -6  -3  -7   24.27    4.97
   6   3   7   19.12    4.87
  -7  -3  -7    9.80    4.91
   7   3   7   13.60    4.64
  -8  -3  -7    4.81    4.57
   8   3   7   15.40    4.51
   9  -3   7    1.40   17.43
  -9  -3  -7   13.46    4.75
   9   3   7   12.89    4.57
 -10   3  -7   84.32   16.33
 -10  -3  -7   48.26    5.33
  10  -3   7   57.17   13.61
  10   3   7   36.20    4.65
  11  -3   7   31.15    9.79
 -11   3  -7   -5.67   11.44
 -11  -3  -7   11.01    6.32
 -11  -3  -7   14.74    4.54
  11   3   7    1.69    4.07
 -12   3  -7   -0.39    9.35
  12  -3   7   -5.80    7.08
  12   3   7  -16.29    6.54
 -12  -3  -7    3.75    4.14
  12   3   7    3.82    4.11
 -13   3  -7   -0.16    7.32
  13  -3   7   17.47    6.15
 -13  -3  -7    1.34    5.21
  13   3   7    8.95    6.75
 -13  -3  -7   15.05    4.52
  13   3   7    2.75    3.88
  14  -3   7    7.51    5.03
 -14   3  -7   19.19    6.78
 -14  -3  -7    1.87    4.90
  14   3   7   22.38    6.80
 -14  -3  -7    2.99    4.47
  14   3   7    0.29    3.79
  15  -3   7    9.52    4.35
 -15   3  -7    7.18    5.87
 -15  -3  -7    8.20    4.56
  15   3   7   17.23    6.60
  15   3   7    4.88    3.67
 -15  -3  -7   12.26    4.57
  16  -3   7    5.74    3.68
 -16   3  -7   -6.28    5.02
 -16  -3  -7    4.85    4.16
  16   3   7    8.28    6.22
  16   3   7   -2.33    3.27
 -16  -3  -7    9.95    4.42
 -17   3  -7    0.59    4.67
  17  -3   7    8.48    3.27
 -17  -3  -7   -3.10    3.84
  17   3   7    4.44    5.77
 -17  -3  -7   16.64    4.68
  17   3   7    3.58    3.21
 -18   3  -7   -3.99    4.16
  18  -3   7    4.17    2.82
  18   3   7    5.05    5.73
 -18   3  -7   -6.56    6.25
 -21   4   7   13.46    5.93
 -21  -4   7   -5.89    6.85
  21   4  -7    5.30    4.97
  21  -4  -7   -5.49    4.15
 -20   4   7    9.81    5.37
  20   4  -7   -0.46    5.31
 -20  -4   7   -0.40    6.56
  19  -4  -7   10.13    4.11
 -19   4   7   11.87    5.29
  19   4  -7    5.07    5.32
 -19  -4   7   10.48    6.60
 -18   4   7    6.65    5.43
  18  -4  -7    2.94    3.93
 -18  -4   7  -16.67    6.12
  18   4  -7    0.75    4.74
  17  -4  -7    7.76    4.21
 -17   4   7   12.09    5.08
 -17  -4   7    5.96    7.03
  17   4  -7   -7.11    4.49
  16  -4  -7   13.94    4.19
 -16  -4   7    2.50    7.09
  16   4  -7    4.08    5.23
 -15   4   7    1.52    4.95
  15  -4  -7    3.88    4.05
 -15  -4   7    0.53    6.89
  15   4  -7   -0.56    5.62
 -14   4   7    8.48    5.02
  14  -4  -7   10.25    4.15
 -14  -4   7   -8.74    6.63
  14   4  -7   16.70    6.21
 -13   4   7   14.59    5.74
  13  -4  -7    5.72    4.26
 -13  -4   7   10.78    6.64
  13   4  -7    8.95    5.83
 -12   4   7    2.40    6.48
  12  -4  -7    6.50    5.47
  11  -4  -7   31.26    8.52
 -11   4   7   10.97   11.75
 -11  -4   7   42.80    7.07
  11   4  -7   31.79    6.23
 -10  -4   7   17.33    6.08
  10   4  -7   16.59    5.66
  -9  -4   7   27.42    5.88
   9   4  -7   19.60    5.37
  -8  -4   7   25.07    5.76
   8   4  -7   18.30    4.99
  -7  -4   7  140.81    6.49
   7   4  -7  103.82    6.20
   6   4  -7   21.73    5.26
  -6  -4   7   60.08    5.97
  -6   4   7   74.39   17.02
   6  -4  -7   37.93   16.23
   5  -4  -7   43.25   10.98
  -5   4   7   22.07   11.13
   5   4  -7   29.61    4.85
  -5  -4   7   38.32    5.04
   4  -4  -7   12.68    8.47
  -4  -4   7    6.63    4.47
   4   4  -7   10.09    4.41
   3   4  -7   12.62    4.76
   3  -4  -7    1.53    6.64
   2   4  -7   64.59    7.37
  -2  -4   7   62.87    6.70
   2  -4  -7   46.37    6.20
  -2   4   7   48.35    6.59
  -1  -4   7   36.17   13.50
  -1   4   7    7.97    5.38
   1  -4  -7    6.99    5.29
   0  -4  -7   54.93    5.31
   0   4   7   40.67    5.41
  -1  -4  -7   18.79    5.09
   1   4   7   15.19    5.27
  -2  -4  -7   62.70    4.93
   2   4   7   66.90    5.48
  -3  -4  -7    1.28    4.51
   3   4   7   18.26    4.80
  -4  -4  -7   14.95    4.64
   4   4   7   -1.65    4.41
  -5  -4  -7    3.19    4.31
   5   4   7   -3.01    4.27
  -6  -4  -7    4.95    4.51
   6   4   7   17.18    4.42
   7   4   7   27.94    4.56
  -7  -4  -7   32.47    4.80
   8   4   7   -4.33    4.08
  -8  -4  -7    1.37    4.34
  -9  -4  -7    1.83    4.36
   9   4   7   26.36    4.79
 -10  -4  -7   13.07    6.09
 -10  -4  -7   20.19    4.85
  10   4   7   10.21    4.69
  11  -4   7  -14.73   15.82
 -11  -4  -7    8.69    5.75
  11   4   7   -3.84    6.78
 -11  -4  -7    1.50    4.67
 -12   4  -7   49.07   15.43
  12  -4   7   17.41   11.00
 -12  -4  -7    6.90    4.89
  12   4   7   44.32    7.31
  12   4   7   21.07    4.61
 -12  -4  -7   40.39    5.10
  13  -4   7   -4.66    7.94
 -13  -4  -7   11.95    5.08
  13   4   7   18.72    6.62
 -13   4  -7  -12.42   11.03
  13   4   7    3.58    3.88
 -13  -4  -7   17.36    4.77
  14  -4   7   13.90    6.49
 -14   4  -7  -13.23    8.79
 -14  -4  -7    1.97    4.20
  14   4   7   20.94    6.57
 -14  -4  -7    4.75    4.59
  14   4   7    8.73    3.73
 -15   4  -7   -3.23    7.28
  15  -4   7    9.20    4.97
 -15  -4  -7    1.34    3.94
  15   4   7    1.75    6.13
  15   4   7   -5.49    3.20
 -15  -4  -7    9.59    4.61
  16  -4   7  -11.32    4.12
 -16   4  -7    6.20    6.39
  16   4   7   -1.85    3.14
 -16  -4  -7    3.11    4.11
  16   4   7    8.86    6.06
  19  -5  -7    4.67    3.63
 -19   5   7    7.53    5.21
  19   5  -7   13.44    5.51
 -19  -5   7   13.73    6.35
 -18   5   7   13.42    5.14
  18  -5  -7    5.48    3.73
  18   5  -7   19.12    5.53
 -18  -5   7   18.67    6.51
 -17   5   7    2.95    4.87
  17  -5  -7   11.39    3.85
 -17  -5   7   19.03    6.39
  17   5  -7    4.62    4.72
  16  -5  -7   13.28    3.79
 -16   5   7   16.10    4.84
 -16  -5   7   22.93    7.19
  16   5  -7    9.96    5.17
 -15   5   7   15.02    5.03
  15  -5  -7    7.22    3.97
  15   5  -7    9.18    5.41
  14  -5  -7   37.60    4.57
 -14   5   7   36.52    6.04
 -14  -5   7   27.53    7.54
  14   5  -7    7.99    6.06
  13  -5  -7   19.67    5.66
 -13   5   7   12.15    7.42
 -13  -5   7   17.11    6.72
  13   5  -7    0.18    5.77
 -12  -5   7    9.47    6.37
  12   5  -7    4.64    5.62
 -11  -5   7   57.11    6.94
  11   5  -7   26.84    5.73
 -10  -5   7    3.61    6.51
  10   5  -7   -3.14    5.54
   9   5  -7   46.04    6.26
  -9  -5   7  109.32    7.00
  -8   5   7  -10.48   14.91
   8  -5  -7    3.30   14.46
   7  -5  -7   10.20    9.84
  -7   5   7   -8.24   10.01
  -7  -5   7   16.91    5.31
   7   5  -7    9.64    5.12
  -6   5   7   11.43    7.95
   6  -5  -7    0.75    7.54
   6   5  -7   17.03    5.22
  -6  -5   7   12.06    5.22
  -5   5   7   -1.45    6.70
   5  -5  -7   27.47    6.10
   5   5  -7   26.61    4.94
  -4  -5   7  109.65    5.57
   4   5  -7   92.07    5.66
   4  -5  -7   88.36    6.26
  -4   5   7   87.39    6.61
  -3   5   7   12.17    4.72
   3  -5  -7   -1.63    4.53
   3   5  -7    7.63    4.48
  -3  -5   7    2.26    4.41
   2   5  -7    4.32    4.29
  -2  -5   7   -0.65    4.48
  -2   5   7    3.12    4.85
   2  -5  -7    6.56    4.33
  -1  -5   7   14.92    5.28
   1   5  -7   29.05    5.88
   0  -5  -7   -9.62    4.08
   0   5   7   11.66    4.63
  -1  -5  -7   24.77    4.75
   1   5   7    5.79    4.72
  -2  -5  -7    6.24    4.46
   2   5   7   11.11    4.54
  -3  -5  -7   12.17    4.40
   3   5   7   10.14    4.37
  -4  -5  -7   15.19    4.53
   4   5   7    5.61    4.33
   5   5   7   -0.59    4.10
  -5  -5  -7   11.99    4.28
  -6  -5  -7   10.53    4.37
   6   5   7    9.81    4.41
  -7  -5  -7   12.13    4.48
   7   5   7    5.37    4.50
  -8  -5  -7   -4.67    4.51
   8   5   7   -0.63    4.52
  -9  -5  -7    7.08    5.63
   9   5   7   27.24    5.17
  -9  -5  -7   23.44    5.01
 -10  -5  -7   -1.35    5.12
  10   5   7   21.93    7.28
 -10  -5  -7   12.32    4.96
 -11  -5  -7    2.02    4.71
  11   5   7   -6.37    6.58
 -11  -5  -7   -2.37    4.37
  11   5   7   -7.46    3.70
 -12  -5  -7   -0.84    4.32
  12   5   7   -6.41    3.45
 -13  -5  -7    1.48    3.94
  13   5   7   11.82    6.32
  13  -5   7  -15.74   12.84
 -13  -5  -7   -4.77    4.14
  13   5   7   -2.06    3.33
 -14  -5  -7    3.36    3.98
  14   5   7   -9.64    5.67
  14  -5   7    8.92    9.32
 -14   5  -7  -28.52   14.92
  14   5   7    1.90    3.18
 -14  -5  -7    5.43    4.15
  15  -5   7   -9.70    6.60
 -15  -5  -7    7.16    4.19
  15   5   7    1.62    2.97
 -15  -5  -7   10.98    4.13
  15   5   7   15.01    6.05
 -15   5  -7   -0.56   11.29
 -18   6   7   -5.01    4.46
  18  -6  -7    7.48    3.62
  18   6  -7   -3.18    4.77
 -18  -6   7    5.42    6.39
  17  -6  -7    1.46    3.35
 -17   6   7   -5.60    4.37
  17   6  -7   12.39    5.45
 -17  -6   7    5.72    6.19
  16  -6  -7    5.93    3.58
 -16   6   7    3.39    4.57
 -16  -6   7   14.63    6.10
  16   6  -7   11.75    5.09
 -15   6   7    8.76    5.99
  15  -6  -7   18.41    4.15
 -15  -6   7   13.32    6.45
  15   6  -7    1.31    4.67
 -14   6   7   -9.88    7.97
 -14  -6   7   -3.07    6.73
  14   6  -7   -2.15    4.76
  13  -6  -7   16.12    9.72
  13   6  -7    9.03    5.72
 -12  -6   7   20.15    6.25
  12   6  -7   -1.50    5.23
 -11  -6   7    2.16    5.78
  11   6  -7    7.47    5.33
 -10  -6   7    6.04    6.02
  10   6  -7   -4.12    4.99
  10  -6  -7   18.53   11.90
 -10   6   7   14.05   11.81
   9   6  -7    2.34    5.33
  -9  -6   7   10.36    6.09
   9  -6  -7    8.81    8.27
  -9   6   7    9.20    8.72
   8  -6  -7    0.56    6.63
  -8   6   7    1.24    6.72
  -8  -6   7    8.77    5.66
   8   6  -7    8.25    5.88
   7  -6  -7    0.11    5.56
  -7   6   7   14.74    6.09
  -7  -6   7   16.08    5.50
   7   6  -7   17.69    5.37
   6  -6  -7   16.14    5.17
  -6   6   7   15.33    5.18
   6   6  -7   10.29    5.22
  -6  -6   7   15.30    5.37
   5  -6  -7   24.26    4.70
  -5   6   7   30.18    4.84
   5   6  -7   25.14    5.28
  -4  -6   7    8.79    4.87
   4   6  -7   21.48    4.89
   4  -6  -7   11.78    4.21
  -4   6   7   10.86    4.58
  -3   6   7    0.17    4.53
  -3  -6   7   13.03    4.42
   3   6  -7   12.22    5.10
   2  -6  -7   -2.58    4.04
  -2   6   7    1.15    4.38
   2   6  -7   12.95    4.46
  -2  -6   7   11.48    4.21
   1  -6  -7    8.23    4.10
  -1   6   7   12.36    4.53
   1   6  -7   -4.25    4.15
  -1  -6   7   -6.76    3.89
   0  -6  -7   10.99    4.25
   0   6   7   24.26    4.66
   0  -6   7   21.01    5.51
   0   6  -7    4.38    5.25
  -1  -6  -7   12.66    4.78
   1  -6   7   14.18    9.39
  -1   6  -7    3.21    8.05
  -2  -6  -7  171.40    6.77
   2   6   7  124.79    6.19
  -3  -6  -7   58.76    5.63
   3   6   7   48.92    5.61
  -4  -6  -7   15.07    4.59
   4   6   7   12.36    4.83
  -5  -6  -7   33.92    4.67
   5   6   7    9.32    4.51
  -6  -6  -7   20.82    4.58
   6   6   7    8.18    4.83
   7   6   7   20.83    4.84
  -7  -6  -7   26.92    4.80
  -8  -6  -7    8.45    4.81
   8   6   7    8.05    4.40
  -8  -6  -7    6.61    4.53
  -9  -6  -7   -5.54    4.44
   9   6   7    8.53    6.93
  -9  -6  -7   -1.76    4.30
   9   6   7    7.63    4.02
 -10  -6  -7   -1.69    4.39
  10   6   7    8.99    6.56
  10   6   7   -0.42    3.57
 -10  -6  -7   -2.53    4.05
 -11  -6  -7    7.63    4.08
  11   6   7   11.76    6.21
 -11  -6  -7    7.21    4.05
  11   6   7    0.42    3.27
  12   6   7   -0.56    3.18
 -12  -6  -7   -0.61    3.73
 -13  -6  -7    3.19    3.92
  13   6   7    9.72    5.66
 -13  -6  -7   -5.97    3.50
  13   6   7    2.28    3.12
 -15   7   7    7.99    9.80
  15  -7  -7    2.71    4.86
  15   7  -7   13.19    5.31
 -15  -7   7    8.19    5.99
 -14  -7   7   16.25    6.10
  14   7  -7    1.89    4.48
 -13  -7   7   15.25    6.63
  13   7  -7    6.70    4.69
 -12   7   7   -7.35    9.05
 -12  -7   7   -1.83    6.26
  12   7  -7    9.88    5.14
 -11  -7   7    8.40    5.91
  11   7  -7    9.60    5.41
  11  -7  -7   17.64    6.42
 -11   7   7    2.39    6.68
 -10  -7   7    3.52    5.45
  10   7  -7    3.39    4.99
  10  -7  -7   13.39    5.19
 -10   7   7   12.22    5.50
  -9  -7   7  -12.68    5.28
   9   7  -7    8.66    5.01
  -9   7   7    5.91    4.66
   9  -7  -7   -2.95    4.08
   8   7  -7    1.41    4.99
   8  -7  -7    4.89    3.84
  -8   7   7   -7.25    3.91
   7   7  -7   -6.47    5.12
  -7  -7   7    3.90    5.47
  -7   7   7    0.47    4.06
   7  -7  -7   -2.27    3.43
   6  -7  -7   10.94    3.62
  -6   7   7   22.86    4.18
  -6  -7   7   15.65    5.11
   6   7  -7   11.61    5.05
  -5   7   7    5.48    4.14
   5  -7  -7   -7.56    3.20
   5   7  -7    1.38    4.62
  -5  -7   7    6.54    4.64
   4  -7  -7    3.84    3.51
  -4   7   7   -3.85    3.83
  -4  -7   7    1.80    4.72
   3  -7  -7   14.08    3.65
  -3   7   7    0.50    3.77
   3   7  -7   -1.80    4.51
  -3  -7   7   14.39    4.37
   2  -7  -7    5.34    3.36
  -2   7   7    9.96    3.91
  -2  -7   7    1.80    4.11
   2   7  -7    2.51    4.41
   1  -7  -7    5.88    3.60
  -1   7   7    5.49    3.86
  -1  -7   7   10.37    3.85
   1   7  -7    6.63    4.24
   0   7   7   27.73    4.49
   0  -7  -7   22.36    3.95
   0   7  -7   23.92    4.48
   0  -7   7   20.91    4.09
   1   7   7   20.86    4.53
   1  -7   7   18.39    5.00
  -1   7  -7   18.44    4.82
  -2  -7  -7    0.22    3.93
   2   7   7    3.08    4.35
   2  -7   7   -0.55    6.72
  -2   7  -7   -4.31    5.85
  -3  -7  -7   -0.12    4.05
   3   7   7   21.35    5.04
  -3   7  -7   30.05   12.77
   4   7   7   -7.31    4.50
  -4  -7  -7   -4.66    4.05
   5   7   7    6.22    4.35
  -5  -7  -7    2.63    4.33
  -6  -7  -7    3.12    4.17
   6   7   7   11.08    4.17
  -7  -7  -7   -1.36    4.22
   7   7   7    0.92    3.64
  -7  -7  -7    5.04    3.92
  -8  -7  -7   -6.05    3.88
   8   7   7   10.91    6.92
  -8  -7  -7   -3.93    3.66
   8   7   7    2.39    3.41
  -9  -7  -7   -9.97    3.61
   9   7   7    8.78    6.25
  -9  -7  -7   13.04    3.92
   9   7   7    9.01    3.51
 -10  -7  -7   -0.50    3.70
  10   7   7    8.47    6.02
  10   7   7    2.32    3.27
 -10  -7  -7    4.01    3.61
 -11  -7  -7   -1.65    3.60
  11   7   7  -12.25    5.66
  11   7   7   -3.31    3.09
 -11   8   7   -3.50    3.87
  11  -8  -7    2.63    3.60
 -11  -8   7   11.03    6.06
  11   8  -7   13.43    4.74
  10  -8  -7   -3.86    2.92
 -10   8   7   -3.94    3.49
 -10  -8   7    7.18    5.69
  10   8  -7    1.96    5.13
  -9   8   7    4.27    3.46
   9  -8  -7    0.59    2.70
  -9  -8   7    7.35    5.49
   9   8  -7   10.39    5.08
   8  -8  -7    5.00    2.75
  -8   8   7    1.47    3.76
   7   8  -7    7.55    4.79
  -7  -8   7    4.56    5.55
  -7   8   7    3.78    3.72
   7  -8  -7    0.33    2.70
   6   8  -7    5.42    4.67
   6  -8  -7   -1.52    2.83
  -6   8   7    2.70    3.44
  -6  -8   7    6.68    5.19
   5  -8  -7    6.96    3.00
  -5   8   7    7.53    3.52
   5   8  -7   -2.23    4.53
  -5  -8   7    9.47    4.62
   4  -8  -7    5.99    2.89
  -4   8   7    6.41    3.39
   4   8  -7    1.05    4.25
  -4  -8   7   -1.93    4.19
  -3   8   7    6.03    3.53
   3  -8  -7    1.40    2.75
   3   8  -7    3.68    4.20
  -3  -8   7   14.86    4.53
  -2   8   7   -2.79    3.52
   2  -8  -7    0.09    2.79
   2   8  -7    2.33    4.18
  -2  -8   7    4.16    3.99
   1  -8  -7    4.68    3.23
  -1   8   7   -5.49    3.81
  -1  -8   7    3.27    4.01
   1   8  -7    1.83    3.97
   0  -8  -7   13.84    3.51
   0   8   7   12.13    4.32
   0   8  -7    2.48    3.86
   0  -8   7    5.93    3.57
   1   8   7    2.90    4.22
  -1  -8  -7    2.59    3.53
   1  -8   7    1.59    3.49
  -1   8  -7   11.05    3.82
   2   8   7    9.94    4.20
   2  -8   7    5.65    4.03
  -2   8  -7    5.36    3.79
  -3  -8  -7   14.23    4.32
   3   8   7   13.77    4.18
  -3   8  -7   14.21    5.58
   3  -8   7    3.72    5.74
   4   8   7    8.26    4.01
  -4  -8  -7    7.30    4.25
  -4   8  -7    8.71    8.98
  -5  -8  -7   20.54    4.39
   5   8   7   15.91    3.99
  -6  -8  -7    1.85    4.11
   6   8   7    6.79    3.66
  -7  -8  -7   11.04    3.89
   7   8   7   -1.13    6.34
   7   8   7    4.92    3.27
  -7  -8  -7    1.30    3.48
 -23   0   8   23.41    7.06
  23   0  -8   10.25    5.06
 -22   0   8   28.05    7.21
  22   0  -8    4.08    5.15
 -21   0   8   11.02    7.16
  21   0  -8   15.80    5.24
 -20   0   8   58.91    8.00
  20   0  -8   52.27    5.98
  19   0  -8    1.23    5.14
 -19   0   8   24.44    7.78
 -18   0   8   15.50    7.14
  18   0  -8    2.46    5.47
  17   0  -8   -6.46    5.22
 -17   0   8   21.43    6.82
 -16   0   8    1.91    6.56
  16   0  -8   -3.97    5.22
 -15   0   8  113.84    7.93
  15   0  -8   57.47    6.14
  14   0  -8   73.04    6.41
 -14   0   8  113.08    7.75
  13   0  -8   43.90    5.59
 -13   0   8   79.31    7.01
 -12   0   8   40.90    5.83
  12   0  -8   53.35    6.01
  11   0  -8   75.56    5.53
 -11   0   8  109.00    6.13
 -10   0   8   13.01    5.19
  10   0  -8    7.31    4.64
  -9   0   8   24.90    5.93
   9   0  -8   25.35    5.27
   8   0  -8  571.24   11.63
  -8   0   8  248.14    9.06
  -7   0   8   19.95   10.92
   7   0  -8    6.04    9.98
   3   0   8   30.88   22.60
  -4   0  -8  240.85   19.22
   4   0   8   64.10   16.81
   5   0   8    5.44   12.00
  -5   0  -8   -7.66   11.56
  -6   0  -8   81.30   10.81
   6   0   8   51.81   10.01
  -7   0  -8    8.51    8.08
   7   0   8   -4.84    7.41
  -8   0  -8   19.25    7.85
   8   0   8   -6.68    6.92
  -9   0  -8  118.87    8.44
   9   0   8  106.29    7.71
  10   0   8   -3.94    5.94
 -10   0  -8   10.70    6.72
 -11   0  -8   45.06    6.65
  11   0   8   55.03    6.05
 -12   0  -8   36.22    5.96
  12   0   8   45.70    5.54
  13   0   8   10.93    4.25
 -13   0  -8   -1.18    4.85
 -14   0  -8   -1.03    4.22
  14   0   8    5.95    3.97
 -15   0  -8    2.29    4.50
  15   0   8    4.32    3.57
 -16   0  -8   -1.43    4.14
  16   0   8    5.10    3.27
 -17   0  -8    6.23    6.57
 -17   0  -8   11.55    4.22
  17   0   8    2.44    2.86
 -18   0  -8   -3.66    5.98
  18   0   8   17.88    6.27
 -18   0  -8    2.73    3.92
  18   0   8    2.55    2.75
 -23   1   8   -6.35    6.41
  23  -1  -8    7.94    4.74
 -23  -1   8    6.59    7.38
  23   1  -8    9.84    4.78
 -22   1   8    5.63    6.88
  22  -1  -8    3.48    4.81
 -22  -1   8   24.02    7.75
  22   1  -8    9.41    5.18
  21  -1  -8    4.03    4.91
 -21  -1   8    7.57    7.25
  21   1  -8   -0.42    5.22
 -21   1   8   14.97    7.40
 -20   1   8   22.48    7.52
 -20  -1   8   15.93    7.21
  20   1  -8   17.90    5.60
  20  -1  -8   13.72    5.23
 -19   1   8   14.91    6.79
  19  -1  -8   14.76    5.54
 -19  -1   8   12.94    7.33
  19   1  -8   12.31    5.42
  18  -1  -8    9.55    5.05
 -18   1   8    0.63    6.36
  18   1  -8   11.26    5.67
 -18  -1   8   19.71    7.75
 -17  -1   8   16.12    7.49
 -17   1   8   35.82    6.69
  17   1  -8   16.16    6.50
 -16  -1   8   29.08    7.28
 -16   1   8   20.61    6.84
  16   1  -8   30.41    6.62
  16  -1  -8   22.01    5.28
  15  -1  -8   63.52    6.11
  15   1  -8   60.45    6.53
 -15   1   8  102.78    7.45
 -15  -1   8  104.18    8.09
 -14   1   8  102.16    7.47
  14   1  -8   81.09    6.49
 -14  -1   8  121.44    8.02
  13   1  -8   36.23    5.97
 -13  -1   8   50.89    7.06
  13  -1  -8   52.17    5.51
 -13   1   8   58.02    6.07
  12  -1  -8   39.70    4.94
  12   1  -8   41.59    5.58
 -12  -1   8   49.50    6.27
 -12   1   8   58.64    5.84
  11   1  -8   20.09    5.41
  11  -1  -8   10.91    4.64
 -11   1   8   16.90    5.16
 -10  -1   8   35.35    5.58
  10   1  -8   15.11    4.90
  10  -1  -8   22.72    5.63
 -10   1   8   39.86    6.52
   9  -1  -8  107.28    7.91
  -9   1   8  130.10    8.95
  -8   1   8   25.51   13.12
   8  -1  -8    6.60   11.23
  -8  -1   8   18.78    5.52
  -7  -1   8  414.62   10.43
   7   1  -8  561.77   11.25
   6   1  -8  477.67   13.56
  -6  -1   8  432.09   13.31
   5   1  -8  125.93   18.09
   1   1   8   77.68   23.21
  -1  -1  -8  125.10   22.78
  -2  -1  -8  -11.07   15.54
   2   1   8   51.51   16.51
   3   1   8   77.82   13.16
  -3  -1  -8   72.59   12.46
  -4  -1  -8   44.45    9.90
   4   1   8   60.67   10.24
  -5   1  -8  -46.10   22.29
  -5  -1  -8  -18.59    7.61
  -6   1  -8   37.10   16.80
   6  -1   8   67.56   16.18
   6   1   8   68.18    7.67
  -6  -1  -8   60.36    7.62
   7  -1   8   10.53   11.69
  -7  -1  -8   39.83    6.86
  -7   1  -8   22.12   12.39
   7   1   8   34.40    6.44
   8  -1   8    4.08    9.70
  -8   1  -8   28.57   10.48
  -8  -1  -8   35.27    6.05
   8   1   8   20.47    5.62
  -9  -1  -8   59.53    6.09
  -9   1  -8  118.23    9.93
  10  -1   8  -10.40    7.23
 -10   1  -8   10.83    8.41
  10   1   8   -1.60    4.87
 -11   1  -8   63.50    8.11
 -11  -1  -8   68.52    6.02
  11  -1   8   73.23    7.47
  11   1   8   39.84    5.49
  12  -1   8   31.98    5.95
 -12   1  -8   21.57    6.83
 -12  -1  -8   31.21    5.69
  12   1   8   31.78    5.33
  13  -1   8    3.53    4.73
 -13   1  -8   -7.70    5.49
  13   1   8   -4.20    4.17
 -14   1  -8   -1.46    4.79
  14  -1   8   13.72    4.35
 -14  -1  -8    9.27    4.84
  14   1   8    2.40    3.72
 -15   1  -8    3.47    4.55
 -15  -1  -8    6.32    4.23
  15   1   8    4.58    3.21
  15  -1   8    4.19    3.37
 -16  -1  -8   10.87    6.47
  16  -1   8    4.81    3.38
 -16  -1  -8    0.75    4.01
  16   1   8   -0.91    2.93
 -16   1  -8   10.91    4.22
 -17  -1  -8  -16.99    5.69
  17   1   8   10.42    6.61
 -17   1  -8    5.69    4.23
  17   1   8    1.45    2.83
  17  -1   8    1.21    3.05
 -17  -1  -8    1.05    3.82
 -18  -1  -8    0.97    5.37
  18   1   8    3.50    6.11
 -18   1  -8   17.84    6.89
  18   1   8    1.20    2.61
 -18   1  -8   -3.83    4.07
  18  -1   8    3.39    2.89
 -18  -1  -8    5.70    3.89
  22  -2  -8   -1.22    4.46
 -22  -2   8   -8.80    7.37
  22   2  -8    4.28    4.84
 -22   2   8    1.85    6.86
 -21   2   8    3.05    6.85
 -21  -2   8   16.33    7.81
  21   2  -8  -10.12    4.77
  21  -2  -8    8.37    4.83
  20  -2  -8   17.26    4.99
 -20   2   8   25.26    6.48
 -20  -2   8    1.83    7.06
  20   2  -8    6.36    5.53
 -19   2   8   19.68    6.25
  19  -2  -8   14.43    4.81
 -19  -2   8   35.11    7.29
  19   2  -8   15.99    5.62
  18  -2  -8   26.98    5.21
 -18   2   8   29.59    6.34
 -18  -2   8   28.41    7.43
  18   2  -8   17.64    5.55
 -17   2   8   16.86    6.39
  17  -2  -8   27.38    5.15
  17   2  -8   12.98    5.89
 -17  -2   8    9.13    7.33
  16  -2  -8    4.50    4.91
 -16   2   8    8.16    5.87
 -16  -2   8   17.91    7.61
  16   2  -8   -0.18    5.89
 -15   2   8  123.06    7.95
  15  -2  -8  129.77    6.52
 -15  -2   8   88.39    8.11
  14   2  -8   11.30    5.99
 -14  -2   8   27.67    7.31
  13  -2  -8   41.00    5.07
  13   2  -8   43.06    6.26
 -13  -2   8   55.54    7.19
 -13   2   8   50.43    6.08
 -12   2   8  120.52    6.55
 -12  -2   8  152.17    8.16
  12   2  -8   82.84    6.60
  12  -2  -8   83.01    5.57
  11   2  -8   13.50    5.41
 -11  -2   8   17.27    5.83
 -11   2   8    8.99    6.59
  11  -2  -8   28.41    5.99
 -10  -2   8   11.70    6.11
  10   2  -8    6.05    5.32
  10  -2  -8   29.55    7.48
 -10   2   8   31.72    8.82
   9   2  -8   15.51    4.82
  -9  -2   8   16.95    5.29
  -9   2   8   32.12   15.57
   9  -2  -8   11.90   13.59
   8   2  -8   76.59    5.46
  -8  -2   8   82.36    5.81
   7   2  -8   69.22    5.41
  -7  -2   8   72.15    5.68
  -6  -2   8   20.90    6.67
   6   2  -8   28.47    6.50
  -5  -2   8  153.79    9.98
   5   2  -8  244.41   10.71
  -4  -2   8   31.37   15.82
   4   2  -8   30.39   16.93
  -2   2   8   47.68   31.72
  -1   2   8   21.66   20.20
   1  -2  -8    4.50   18.56
   0   2   8  -21.05   14.04
   0  -2  -8    6.62   13.37
  -1  -2  -8   22.39   10.64
   1   2   8    5.54   11.26
  -2  -2  -8    5.14    8.63
   2   2   8   -5.33    8.83
   3   2   8   14.13    8.30
  -3  -2  -8   31.84    7.97
  -4  -2  -8   33.63    7.16
   4   2   8   50.50    7.26
   5   2   8    9.33    6.12
  -5  -2  -8    5.49    6.10
  -6  -2  -8   58.24    6.23
   6   2   8   60.22    5.99
  -7  -2  -8   23.82    5.53
   7  -2   8   66.32   20.72
  -7   2  -8   19.69   23.62
   7   2   8   28.22    5.44
  -8   2  -8   37.22   17.59
   8  -2   8   43.13   15.55
   8   2   8   27.92    5.07
  -8  -2  -8   27.31    5.32
  -9   2  -8   18.79   13.54
   9  -2   8   -1.75   11.32
   9   2   8   23.27    5.42
 -10   2  -8   35.07   11.31
  10  -2   8    8.64    9.94
 -10  -2  -8   19.15    5.50
  10   2   8   15.69    5.03
  11  -2   8   35.74    8.39
 -11  -2  -8   31.59    5.58
  11   2   8   17.25    4.97
 -12   2  -8   10.21    7.85
 -12  -2  -8    9.27    4.92
  12   2   8    0.36    4.12
 -13   2  -8   18.35    7.06
  13  -2   8    1.67    5.41
 -13  -2  -8   -3.54    4.48
  13   2   8    3.65    3.78
 -14   2  -8   21.09    6.39
  14  -2   8    6.79    4.52
 -14  -2  -8   -4.74    6.35
 -14  -2  -8   16.18    4.51
  14   2   8    4.71    3.48
  15  -2   8    6.59    3.93
 -15   2  -8    2.02    5.17
 -15  -2  -8    3.51    6.27
  15   2   8   -1.15    3.14
 -15  -2  -8    5.50    4.03
 -16   2  -8    1.04    4.69
  16  -2   8   -5.95    3.34
 -16  -2  -8   10.74    5.71
  16   2   8    6.07    6.84
  16   2   8   -0.94    2.92
 -16  -2  -8    4.66    3.84
 -17   2  -8    2.76    4.41
 -17  -2  -8   13.41    3.82
  17   2   8    4.17    2.93
  17  -2   8    0.38    3.07
 -17  -2  -8    2.52    5.15
  17   2   8    1.78    6.56
 -22   3   8   -0.38    6.41
 -22  -3   8    9.98    7.10
  22   3  -8    3.14    4.69
  22  -3  -8    0.52    4.57
  21  -3  -8   -3.09    4.47
 -21   3   8   12.73    6.12
 -21  -3   8   14.92    7.60
  21   3  -8   10.53    4.90
 -20   3   8    4.27    5.64
  20  -3  -8    4.64    4.19
 -20  -3   8   -6.50    7.11
  20   3  -8    1.49    4.86
 -19   3   8    6.44    5.91
  19  -3  -8    5.11    4.21
 -19  -3   8   20.97    7.28
  19   3  -8    3.41    5.49
 -18   3   8   12.27    5.85
  18  -3  -8    8.74    4.62
 -18  -3   8    0.58    6.96
  18   3  -8    6.87    5.49
 -17   3   8   -0.13    5.61
  17  -3  -8    7.21    4.48
 -17  -3   8   22.66    7.24
  17   3  -8   22.19    5.80
 -16   3   8   26.37    6.03
  16  -3  -8   27.71    5.09
  16   3  -8   14.76    5.73
 -15   3   8   28.55    5.62
  15   3  -8   22.55    6.36
 -15  -3   8   42.02    8.10
 -14   3   8   19.33    5.69
 -14  -3   8   27.73    7.44
  14  -3  -8    6.84    4.53
  14   3  -8   10.71    6.32
  13   3  -8    6.44    6.25
 -13  -3   8   23.00    7.10
  13  -3  -8   22.57    5.02
 -13   3   8   24.70    6.32
 -12  -3   8  260.82    9.10
  12   3  -8  158.86    7.65
 -12   3   8  160.07    9.36
  12  -3  -8  179.96    7.83
 -11  -3   8   36.79    6.81
  11   3  -8   23.69    5.72
 -11   3   8   53.08   10.17
  11  -3  -8   25.81    8.51
 -10  -3   8   16.68    5.82
  10   3  -8   -1.16    5.15
  10  -3  -8   44.68   15.62
  -9  -3   8   32.60    6.23
   9   3  -8   14.44    5.23
   8   3  -8   62.55    5.68
  -8  -3   8   84.94    5.99
  -7  -3   8  122.08    6.29
   7   3  -8   81.03    5.62
  -6  -3   8   25.17    5.21
   6   3  -8   24.35    4.94
   5   3  -8   34.63    6.09
  -5  -3   8   23.35    6.13
  -4  -3   8  113.33    8.40
   4   3  -8  145.82    8.70
  -4   3   8   49.76   26.09
   3   3  -8   -0.77   13.06
   3  -3  -8   -3.28   15.41
  -3   3   8   23.12   16.87
   2  -3  -8   22.34   11.82
  -2   3   8   24.72   12.12
  -1   3   8    0.36   10.05
   1  -3  -8    6.95    9.38
   0  -3  -8   29.14    8.06
   0   3   8    0.15    8.09
   1   3   8   18.02    7.49
  -1  -3  -8   42.87    7.67
  -2  -3  -8   40.28    6.75
   2   3   8   29.84    6.78
  -3  -3  -8   10.16    5.49
   3   3   8   10.83    5.80
  -4  -3  -8   12.38    5.10
   4   3   8    9.99    5.29
  -5  -3  -8   -8.76    4.98
   5   3   8   11.44    5.21
  -6  -3  -8   90.08    5.83
   6   3   8   77.69    5.83
  -7  -3  -8   -6.77    4.90
   7   3   8   13.25    5.00
  -8  -3  -8   14.41    5.14
   8   3   8    0.36    4.71
   9  -3   8   40.57   21.49
  -9  -3  -8   13.48    5.11
   9   3   8   11.89    4.74
 -10   3  -8   21.07   18.66
  10  -3   8    6.41   14.99
 -10  -3  -8    4.18    4.85
  10   3   8    7.89    4.47
  11  -3   8  -23.35   10.63
 -11   3  -8   -0.87   13.72
 -12   3  -8   -7.22   10.49
  12  -3   8   10.20    8.65
  12   3   8    9.74    3.91
 -13   3  -8    2.75    8.89
  13  -3   8    6.45    6.71
 -13  -3  -8   -7.05    6.17
  13   3   8    0.38    3.44
 -13  -3  -8    3.89    4.08
 -14   3  -8    4.84    7.43
  14  -3   8    7.59    5.85
 -14  -3  -8    9.93    6.01
 -14  -3  -8   13.99    4.09
  14   3   8    3.00    3.54
  15  -3   8    9.61    4.81
 -15   3  -8  -17.67    6.45
 -15  -3  -8   -2.88    5.43
  15   3   8   -7.58    6.94
 -15  -3  -8    6.84    4.01
  15   3   8   -0.14    3.30
 -16   3  -8   -3.70    5.85
  16  -3   8    5.82    3.99
 -16  -3  -8    9.74    5.13
  16   3   8    0.40    6.72
 -16  -3  -8    4.64    4.05
  16   3   8    2.60    3.31
 -17   3  -8   -9.25    5.04
  17  -3   8    1.37    3.40
 -17  -3  -8    3.26    4.02
  17   3   8   -0.82    3.16
 -17  -3  -8  -10.11    4.25
  17   3   8   -2.37    6.26
  21  -4  -8   -1.14    4.02
 -21   4   8    6.85    5.48
 -21  -4   8   10.35    6.95
  21   4  -8    2.75    4.47
 -20   4   8   10.35    5.74
  20  -4  -8   -0.52    3.87
 -20  -4   8   12.18    7.44
  20   4  -8    5.04    4.72
  19  -4  -8    2.09    4.02
 -19   4   8    0.99    5.21
 -19  -4   8   17.73    7.36
  19   4  -8   -0.21    5.01
 -18   4   8    9.53    5.63
  18  -4  -8   10.72    3.99
 -18  -4   8   14.65    7.28
  18   4  -8    9.14    5.65
 -17   4   8   20.51    5.24
  17  -4  -8    7.91    4.39
 -17  -4   8   16.74    6.98
  17   4  -8    3.74    5.62
 -16   4   8    9.14    5.08
  16  -4  -8    3.28    4.03
 -16  -4   8   24.12    7.04
  16   4  -8    2.84    5.55
 -15   4   8    8.22    5.25
  15  -4  -8   -4.11    4.17
 -15  -4   8   12.22    7.34
  15   4  -8  -11.15    5.60
 -14  -4   8  130.41    9.20
  14   4  -8   54.96    6.72
 -13   4   8   18.41    7.33
 -13  -4   8   22.45    7.43
  13   4  -8   26.97    6.66
 -12  -4   8   59.15    7.13
  12   4  -8   41.68    6.33
 -12   4   8   54.16   11.95
  12  -4  -8   54.41    8.82
  11   4  -8   10.20    5.53
 -11  -4   8   31.49    6.50
 -10  -4   8   22.87    6.19
  10   4  -8    2.39    5.11
  -9  -4   8   14.48    5.83
   9   4  -8    0.40    5.38
  -8  -4   8   25.23    5.85
   8   4  -8   10.28    5.05
   7   4  -8   11.59    5.53
  -7  -4   8   19.73    5.29
  -6  -4   8   24.89    4.97
   6   4  -8   26.30    5.07
  -6   4   8    8.82   21.48
   5   4  -8   34.81    5.13
  -5  -4   8   30.88    5.14
   5  -4  -8  -13.66   13.08
  -5   4   8   42.80   14.82
  -4  -4   8   12.95    5.43
  -4   4   8  -26.18   10.79
   4  -4  -8   21.74   10.04
   3   4  -8   24.84    7.34
  -3  -4   8   32.50    6.78
   3  -4  -8   47.25    8.93
  -3   4   8    7.98    8.88
  -2  -4   8   29.19   11.72
   2   4  -8   44.64   11.87
   2  -4  -8   25.34    7.01
  -2   4   8   41.51    7.77
  -1   4   8   -1.89    6.47
   1  -4  -8    8.96    6.19
   0   4   8   19.43    5.95
   0  -4  -8   31.56    5.98
   1   4   8    9.47    5.25
  -1  -4  -8   -2.57    4.84
  -2  -4  -8    8.81    4.76
   2   4   8    9.56    5.09
   3   4   8    4.63    4.76
  -3  -4  -8    5.85    4.75
  -4  -4  -8   -6.72    4.50
   4   4   8   16.11    5.10
  -5  -4  -8   -3.56    4.96
   5   4   8    1.36    5.03
  -6  -4  -8   60.47    5.75
   6   4   8   47.37    5.44
  -7  -4  -8   -3.73    4.79
   7   4   8    3.03    4.61
  -8  -4  -8   -4.14    4.44
   8   4   8   24.15    4.84
  -9  -4  -8   24.66    5.07
   9   4   8   17.27    4.49
  10   4   8    1.90    3.95
 -10  -4  -8   12.17    4.50
  11  -4   8   37.61   18.51
  11   4   8    0.26    3.83
 -11  -4  -8   16.82    4.34
 -12   4  -8   -7.75   17.49
  12  -4   8  -11.60   12.20
 -12  -4  -8   13.18    6.05
 -12  -4  -8    6.40    4.08
  12   4   8   -3.95    3.65
  13  -4   8  -10.82    8.93
 -13   4  -8  -13.55   12.86
 -13  -4  -8    0.20    5.51
  13   4   8    1.97    7.09
 -13  -4  -8    6.67    4.23
  13   4   8    4.22    3.52
  14  -4   8   19.20    7.38
 -14   4  -8   19.03   10.67
  14   4   8   -3.85    7.00
 -14  -4  -8    7.61    4.30
  14   4   8    7.11    3.62
 -15   4  -8   10.94    8.88
  15  -4   8   -2.18    5.55
 -15  -4  -8   15.01    5.08
  15   4   8  -13.73    6.54
 -15  -4  -8    8.05    4.34
  15   4   8    8.13    3.76
 -16   4  -8   15.38    7.71
  16  -4   8   -1.07    4.86
  16   4   8    7.76    3.68
 -16  -4  -8   -2.04    4.25
 -16  -4  -8   15.07    4.33
  16   4   8   -0.20    6.28
 -19   5   8    4.65    5.43
  19  -5  -8    9.97    3.79
 -19  -5   8   15.15    7.26
  19   5  -8    6.21    4.68
 -18   5   8    9.52    4.99
  18  -5  -8   -4.60    3.93
  18   5  -8    0.84    4.65
  17  -5  -8    0.59    3.69
 -17   5   8    1.13    4.88
 -17  -5   8    2.32    7.16
  17   5  -8   -4.47    5.16
  16  -5  -8    6.31    4.09
 -16   5   8    6.70    5.01
  16   5  -8    3.20    5.54
 -15   5   8    8.59    6.33
  15   5  -8   19.97    6.02
 -14   5   8   -1.69    7.37
 -14  -5   8    0.71    6.76
  14   5  -8   12.54    5.46
 -13   5   8   24.26   14.39
  13  -5  -8   -0.18    8.49
  13   5  -8    5.18    5.67
 -13  -5   8   19.26    7.04
 -12  -5   8    0.66    6.45
  12   5  -8    2.53    5.96
 -11  -5   8   11.83    6.04
  11   5  -8    7.55    5.66
 -10  -5   8   28.92    5.99
  10   5  -8    3.88    5.26
   9   5  -8    1.80    5.20
  -9  -5   8    6.73    5.64
  -8   5   8  -19.91   18.66
   8   5  -8    9.94    5.47
   7  -5  -8  -16.52   12.25
  -7   5   8    9.64   13.38
  -6   5   8    7.41   10.49
   6  -5  -8   15.76    9.72
   6   5  -8   26.03    5.77
  -5   5   8   10.90    8.15
   5  -5  -8   44.68    8.46
  -5  -5   8   39.29    5.37
   5   5  -8   40.44    5.53
   4  -5  -8    5.09    6.51
   4   5  -8   21.28    4.86
  -3  -5   8   14.89    5.19
   3   5  -8   22.73    4.91
   3  -5  -8   19.23    6.00
  -3   5   8   11.28    6.26
   2   5  -8    4.01    6.40
  -2  -5   8   -2.02    5.41
  -2   5   8   -1.48    5.25
   2  -5  -8   13.61    5.13
  -1  -5   8   16.78   10.13
   1   5  -8    5.53    9.13
  -1   5   8    3.11    5.01
   1  -5  -8   12.75    4.83
   0  -5  -8   14.47    5.07
   0   5   8    8.86    5.35
  -1  -5  -8  112.04    6.10
   1   5   8  128.03    6.57
  -2  -5  -8    4.68    4.82
   2   5   8   -2.29    5.14
  -3  -5  -8   15.03    4.94
   3   5   8   14.38    5.06
  -4  -5  -8    8.00    4.95
   4   5   8    9.00    4.73
  -5  -5  -8   37.13    5.03
   5   5   8   15.02    4.76
  -6  -5  -8    3.23    4.39
   6   5   8   -5.54    4.20
  -7  -5  -8   -0.24    4.12
   7   5   8    0.34    4.03
   8   5   8   -3.09    3.88
  -8  -5  -8    2.86    4.10
  -9  -5  -8   11.78    4.22
   9   5   8    8.51    4.14
 -10  -5  -8   -4.03    3.93
  10   5   8    5.91    4.02
 -11  -5  -8    6.62    4.20
  11   5   8    5.47    3.73
 -11  -5  -8   13.06    5.66
 -12  -5  -8   12.22    4.40
  12   5   8   -3.24    3.75
 -12  -5  -8    2.33    5.06
  12   5   8   -0.60    6.92
  13   5   8    2.31    3.65
 -13  -5  -8    8.06    4.25
 -13  -5  -8    1.34    4.53
  13   5   8   20.72    7.15
  14   5   8   -0.84    3.56
 -14  -5  -8    6.00    4.31
 -14  -5  -8    1.95    4.40
  14   5   8   10.17    6.73
 -14   5  -8   -1.82   17.39
  14  -5   8  -20.42   10.47
 -17   6   8    4.04    4.98
  17  -6  -8   -4.19    3.63
  17   6  -8   -8.38    4.16
 -16   6   8    0.89    6.36
  16  -6  -8    9.44    4.36
 -16  -6   8   23.29    7.07
  16   6  -8    5.37    5.31
  15  -6  -8    2.52    5.15
 -15   6   8    7.55    8.41
 -15  -6   8   12.76    6.64
  15   6  -8   -1.72    5.26
  14  -6  -8   15.50    9.37
 -14  -6   8   11.20    6.57
  14   6  -8    8.41    5.41
 -13  -6   8   25.47    6.62
  13   6  -8    5.81    5.19
  12   6  -8   10.74    5.28
 -12  -6   8   19.66    6.56
  11   6  -8    3.54    5.18
 -11  -6   8   10.36    6.30
  10   6  -8    0.17    5.51
 -10   6   8  -32.35   14.97
  -9   6   8   25.05   11.11
   9   6  -8    4.48    5.32
  -9  -6   8   23.20    5.79
   9  -6  -8    8.20   10.07
  -8   6   8   -9.40    8.67
   8  -6  -8    5.28    7.73
   8   6  -8   12.11    5.28
  -8  -6   8   16.04    5.43
   7  -6  -8   36.20    7.49
  -7   6   8   26.89    7.74
  -7  -6   8   43.95    6.28
   7   6  -8   44.43    5.78
  -6   6   8   21.50    6.84
   6  -6  -8   20.95    6.36
   6   6  -8   33.89    5.63
   5  -6  -8    1.80    5.30
  -5   6   8   -8.89    5.77
  -5  -6   8    3.30    5.56
   5   6  -8   -2.03    5.07
  -4   6   8   -2.87    4.92
   4  -6  -8    0.11    4.59
  -4  -6   8    5.10    4.57
   4   6  -8    2.47    4.65
  -3   6   8    9.94    4.98
   3  -6  -8    6.45    4.37
   3   6  -8    4.43    4.53
  -3  -6   8    7.98    4.43
  -2  -6   8    5.59    4.63
   2   6  -8    9.10    4.51
   2  -6  -8    7.48    4.49
  -1  -6   8   13.74    5.80
   1   6  -8    1.38    5.63
  -1   6   8    5.33    5.02
   1  -6  -8   14.05    4.17
   0  -6   8   10.62    8.45
   0   6  -8   -6.87    7.53
   0  -6  -8    6.84    4.61
   0   6   8   12.13    5.00
  -1  -6  -8   28.47    5.27
   1   6   8   23.54    5.30
  -2  -6  -8   10.59    5.00
   2   6   8   26.55    5.36
  -3  -6  -8   24.83    4.84
   3   6   8   21.47    4.93
  -4  -6  -8   11.09    4.42
   4   6   8    9.40    4.15
   5   6   8    7.47    3.97
  -5  -6  -8    4.29    3.90
  -6  -6  -8    9.80    3.87
   6   6   8   -2.31    4.01
  -7  -6  -8    1.11    3.88
   7   6   8    3.76    4.08
  -8  -6  -8   -3.61    3.89
   8   6   8   -7.97    3.80
   9   6   8    6.95    4.39
  -9  -6  -8    6.62    4.18
  10   6   8    1.58    4.15
 -10  -6  -8    4.72    4.19
 -10  -6  -8   12.31    5.15
  11   6   8    0.97    3.85
 -11  -6  -8    1.75    4.20
 -11  -6  -8    2.50    4.53
  11   6   8   -7.34    6.76
 -12  -6  -8    2.71    4.24
  12   6   8    3.54    3.56
 -12  -6  -8    3.25    4.37
  12   6   8   23.36    7.16
  15  -7  -8    7.30    9.30
 -15  -7   8    7.18    6.60
  15   7  -8   -8.75    4.24
 -14  -7   8    5.54    6.27
  14   7  -8    1.10    5.07
 -13  -7   8    5.44    6.12
  13   7  -8    4.19    5.18
 -12   7   8    7.95   12.33
 -12  -7   8   -1.38    5.81
  12   7  -8    6.48    4.96
  11   7  -8   -1.09    4.53
 -11  -7   8    1.02    5.81
 -11   7   8   -9.67    8.44
  11  -7  -8   -0.24    7.75
  10   7  -8    3.22    5.06
 -10   7   8    6.74    7.00
  10  -7  -8   -8.47    5.96
 -10  -7   8    9.98    6.05
   9   7  -8    8.45    5.21
   9  -7  -8    4.37    5.18
  -9   7   8    7.46    5.98
  -9  -7   8   -1.51    5.43
  -8   7   8   -2.92    5.23
   8  -7  -8   -7.94    4.58
   8   7  -8   -3.86    4.67
   7  -7  -8    7.18    4.27
  -7   7   8    8.13    4.76
   7   7  -8   15.91    4.88
  -7  -7   8   14.61    5.16
  -6   7   8   -4.38    4.23
   6  -7  -8    6.06    3.81
  -6  -7   8    5.42    5.24
   6   7  -8   -1.20    4.57
  -5   7   8   11.63    4.29
   5  -7  -8    6.60    3.54
   5   7  -8   16.68    5.00
  -5  -7   8   -6.63    4.70
  -4   7   8    3.10    4.22
   4  -7  -8   13.86    3.69
  -4  -7   8   14.02    4.90
   4   7  -8    7.98    4.59
   3  -7  -8    4.20    3.52
  -3   7   8   -0.60    4.36
  -3  -7   8   10.04    4.30
   3   7  -8    5.70    4.95
   2  -7  -8   15.36    4.08
  -2   7   8    7.60    4.49
  -2  -7   8   18.36    4.32
   2   7  -8   13.21    4.68
  -1  -7   8   24.49    4.50
   1   7  -8   11.13    4.47
   1  -7  -8   16.33    4.07
  -1   7   8   21.61    4.40
   0  -7   8   -7.82    5.02
   0   7  -8  -12.90    4.94
  -1   7  -8   12.88    6.59
   1  -7   8    0.92    6.76
  -1  -7  -8   -5.79    3.61
   1   7   8    6.65    4.07
  -2   7  -8  -14.45   12.00
   2   7   8   -0.32    3.78
  -2  -7  -8   -7.45    3.55
  -3  -7  -8    0.34    3.55
   3   7   8    7.96    3.99
  -4  -7  -8    7.08    3.57
   4   7   8    9.25    4.18
  -5  -7  -8   -1.02    3.72
   5   7   8   10.07    4.16
  -6  -7  -8   16.88    4.28
   6   7   8    9.51    4.45
   7   7   8    5.12    4.33
  -7  -7  -8    6.71    3.95
  -8  -7  -8   11.85    4.10
  -9  -7  -8    7.06    4.22
   9   7   8    6.32    3.74
  -9  -7  -8    3.67    4.32
 -10  -7  -8    4.37    4.11
  10   7   8    0.63    3.55
 -10  -7  -8   12.90    4.33
  10   7   8   25.09    7.24
 -11  -8   8   14.93    5.68
  11   8  -8    0.20    4.51
  11  -8  -8    5.01    4.25
 -11   8   8   -4.93    5.03
  10   8  -8    1.47    4.58
 -10   8   8  -12.32    4.26
  10  -8  -8    1.99    3.88
   9   8  -8   -0.18    4.57
  -9  -8   8   11.30    5.79
   9  -8  -8   -2.78    3.28
  -9   8   8    7.86    4.06
   8   8  -8    2.71    4.94
  -8   8   8    1.40    3.82
   8  -8  -8   -1.52    2.98
  -8  -8   8    5.65    5.39
  -7   8   8   10.30    3.78
   7  -8  -8    6.91    3.08
  -7  -8   8   14.18    5.22
   7   8  -8   -4.73    4.64
  -6   8   8   11.47    4.15
   6  -8  -8    2.93    2.99
   6   8  -8   13.66    4.71
   5  -8  -8    3.46    3.21
  -5   8   8    3.80    3.87
   5   8  -8    4.73    4.47
  -5  -8   8    9.89    4.82
   4  -8  -8    3.70    3.16
  -4   8   8    3.55    3.59
   4   8  -8    3.01    4.42
  -4  -8   8    8.94    4.42
   3  -8  -8    5.29    3.23
  -3   8   8    3.21    3.71
  -3  -8   8    8.51    4.52
   3   8  -8    8.48    4.48
   2  -8  -8    4.53    3.09
  -2   8   8   -0.69    3.57
   2   8  -8    4.84    4.38
  -2  -8   8    0.09    3.89
   1  -8  -8    0.98    3.13
  -1   8   8   -6.00    3.35
   1   8  -8   -1.56    3.93
  -1  -8   8    5.61    3.81
   0   8   8    7.97    3.72
   0  -8  -8    2.10    3.01
   0  -8   8   -4.03    3.66
   0   8  -8   -0.69    3.87
  -1   8  -8   12.01    4.38
   1  -8   8   11.99    4.61
   1   8   8    8.47    3.95
  -1  -8  -8    7.40    3.36
  -2   8  -8   -9.32    5.84
   2  -8   8    4.23    6.01
  -2  -8  -8    8.57    3.79
   2   8   8   11.68    4.39
  -3   8  -8   14.07    8.85
  -3  -8  -8   34.95    4.52
   3   8   8   30.57    5.33
  -4  -8  -8   63.29    5.29
   4   8   8  107.69    6.35
   5   8   8   21.02    4.71
  -5  -8  -8   44.24    5.10
   6   8   8    5.59    3.91
  -6  -8  -8    2.56    4.22
 -23   0   9   13.69    7.20
  23   0  -9    2.02    4.73
  22   0  -9   -1.77    4.84
 -22   0   9   27.47    7.97
 -21   0   9   11.66    7.70
  21   0  -9    2.34    5.09
 -20   0   9   11.51    6.88
  20   0  -9    2.15    5.46
 -19   0   9    9.84    6.56
  19   0  -9   17.25    5.21
 -18   0   9   16.39    6.62
  18   0  -9   -1.28    5.00
 -17   0   9   10.13    6.49
  17   0  -9    4.30    4.97
 -16   0   9    5.33    6.51
  16   0  -9    8.68    5.43
  15   0  -9    8.45    5.21
 -15   0   9   32.51    6.41
 -14   0   9   28.33    6.85
  14   0  -9   24.49    5.57
  13   0  -9   39.36    5.18
 -13   0   9   51.13    6.21
 -12   0   9   26.87    5.62
  12   0  -9    1.08    4.68
  11   0  -9   21.25    4.95
 -11   0   9   19.18    5.38
 -10   0   9   13.73    6.34
  10   0  -9   22.29    5.81
   9   0  -9  -19.91    7.49
  -9   0   9    5.28    7.23
  -8   0   9  -12.73   10.16
   8   0  -9    1.98    9.57
   7   0  -9  -21.42   16.55
   3   0   9   16.69   25.60
  -3   0  -9   -1.93   25.15
   4   0   9  -39.92   17.64
   5   0   9   22.96   13.55
  -5   0  -9   58.99   14.75
   6   0   9   30.48   11.29
  -6   0  -9    7.54   11.39
  -7   0  -9   88.97   11.04
   7   0   9    3.06    8.91
  -8   0  -9  109.77   10.23
   8   0   9   94.39    9.10
  -9   0  -9   43.65    9.20
   9   0   9   -5.34    7.61
 -10   0  -9   73.06    8.40
  10   0   9   19.49    7.03
 -11   0  -9   85.21    7.88
  11   0   9   37.32    6.42
  12   0   9    3.30    5.15
 -12   0  -9    6.70    5.83
 -13   0  -9    3.19    4.91
  13   0   9    8.43    4.63
 -14   0  -9    7.45    4.95
  14   0   9    6.22    3.95
  15   0   9   -8.65    3.28
 -15   0  -9   -3.40    4.27
 -16   0  -9   -5.28    4.07
  16   0   9    1.47    3.40
 -17   0  -9   -1.43    4.43
  17   0   9    1.92    3.21
  23  -1  -9   -0.59    4.67
 -23  -1   9    5.10    6.93
  23   1  -9   -7.24    4.61
 -23   1   9    6.33    7.24
 -22   1   9    0.21    6.97
 -22  -1   9    9.60    7.14
  22   1  -9   -7.43    4.77
  22  -1  -9   12.13    5.09
 -21   1   9   -4.88    6.59
  21  -1  -9    6.45    5.26
  21   1  -9    6.74    5.17
 -21  -1   9   21.15    7.74
  20  -1  -9    2.88    4.84
 -20   1   9   -6.70    6.27
  20   1  -9    2.16    5.35
 -19  -1   9   25.93    7.53
  19  -1  -9   17.60    5.03
 -19   1   9   10.11    6.16
  19   1  -9   16.84    5.85
  18   1  -9    3.99    5.72
 -18   1   9    3.30    6.59
 -17   1   9   20.62    6.54
  17  -1  -9   20.38    5.29
  17   1  -9   22.38    5.58
  16   1  -9   -4.29    5.21
 -16  -1   9   11.96    6.66
 -16   1   9    5.42    6.12
  16  -1  -9   -8.76    4.76
 -15   1   9   55.52    6.82
  15  -1  -9   37.06    5.85
 -15  -1   9   69.86    7.59
  15   1  -9   53.20    6.41
  14   1  -9   21.50    5.87
 -14   1   9   16.96    5.99
  14  -1  -9    2.05    4.75
 -14  -1   9   22.46    6.42
  13  -1  -9    9.32    4.82
 -13   1   9   15.35    5.80
 -13  -1   9   17.77    6.65
  13   1  -9   15.67    5.39
  12   1  -9   27.79    5.45
  12  -1  -9   33.73    5.18
 -12   1   9   27.12    5.90
  11   1  -9   15.14    5.02
 -11  -1   9   36.02    5.78
  11  -1  -9   37.13    6.16
 -11   1   9   12.14    6.56
 -10  -1   9  120.44    6.60
  10  -1  -9  136.15    8.58
 -10   1   9   83.19    8.81
  10   1  -9   80.65    5.92
   9   1  -9    6.46    5.26
  -9   1   9    8.76   11.84
  -9  -1   9   12.51    6.12
   9  -1  -9   24.43   12.11
  -8  -1   9   17.92    7.67
   8   1  -9    7.57    7.06
  -7  -1   9   18.14    9.40
   7   1  -9   14.25    9.25
  -6  -1   9   24.18   16.15
   6   1  -9   65.48   17.53
  -1  -1  -9   18.21   25.19
  -2  -1  -9   29.73   18.49
   2   1   9   -4.72   18.42
   3   1   9   49.41   14.82
  -3  -1  -9   77.11   14.88
   4   1   9  -16.88   11.27
  -4  -1  -9  -28.48   11.12
   5  -1   9   52.13   24.69
  -5   1  -9   84.12   26.85
  -5  -1  -9   71.48   10.05
   5   1   9   80.75   10.17
   6  -1   9  -15.58   17.30
  -6   1  -9  -10.13   18.55
   6   1   9   11.31    8.20
  -6  -1  -9   -2.06    7.84
  -7  -1  -9   43.92    7.62
   7  -1   9   38.09   13.96
   7   1   9   44.71    7.33
  -7   1  -9   44.44   14.99
   8   1   9  -10.51    6.33
  -8  -1  -9    5.46    6.79
   8  -1   9   -7.88   11.05
  -8   1  -9   10.30   12.03
  -9  -1  -9    8.40    6.16
  -9   1  -9  -19.11   10.18
   9  -1   9   11.97    9.76
   9   1   9    6.92    6.03
 -10  -1  -9   62.94    6.80
 -10   1  -9  115.69   10.54
  11   1   9   17.29    5.31
  11  -1   9   21.53    7.49
 -11  -1  -9   18.89    6.08
  12   1   9   -8.83    4.24
 -12  -1  -9   12.36    5.35
  12  -1   9   11.98    6.32
 -12   1  -9    5.96    7.30
 -13  -1  -9   16.45    4.80
  13   1   9   20.74    4.66
  13  -1   9   12.47    5.21
 -13   1  -9   12.10    6.23
 -14  -1  -9    6.70    4.76
  14   1   9    7.43    3.97
  14  -1   9    5.04    4.37
 -14   1  -9   -3.06    5.34
 -15  -1  -9    5.28    4.61
  15   1   9   -4.76    3.31
  15  -1   9   10.40    3.94
 -15   1  -9    9.58    5.06
 -16  -1  -9   -1.29    4.46
  16   1   9   -0.99    3.14
  16  -1   9    3.85    3.46
 -16   1  -9   -3.42    4.52
  17  -1   9    1.92    3.09
 -17  -1  -9   -6.18    4.01
  17   1   9    2.15    2.85
 -17   1  -9   -2.34    4.27
  22  -2  -9   -0.18    4.64
 -22   2   9    2.27    6.23
 -22  -2   9   -9.05    6.93
  22   2  -9   -1.13    5.17
 -21   2   9    4.28    6.27
  21  -2  -9   -6.75    4.28
 -21  -2   9   15.58    7.24
  21   2  -9    6.70    5.11
  20  -2  -9    4.51    4.61
 -20   2   9    8.97    6.21
 -20  -2   9   26.58    7.63
  20   2  -9   10.20    5.35
 -19   2   9   -4.95    5.94
  19  -2  -9   15.22    4.56
  19   2  -9   20.47    5.91
 -19  -2   9    7.20    7.81
 -18  -2   9    5.69    7.34
  18  -2  -9    9.37    4.85
 -18   2   9   19.71    6.19
  18   2  -9   12.99    5.99
  17   2  -9   12.49    5.85
  17  -2  -9   23.30    5.03
  16   2  -9    5.67    5.54
 -16   2   9   -4.41    5.47
 -16  -2   9    5.59    6.80
  16  -2  -9    0.93    5.17
 -15   2   9   41.95    5.99
  15   2  -9   34.94    6.15
  15  -2  -9   32.80    5.15
 -15  -2   9   47.65    7.04
  14  -2  -9   25.68    5.11
 -14  -2   9    8.40    7.16
 -14   2   9   24.99    6.12
  14   2  -9    9.02    5.87
  13   2  -9   57.68    6.66
 -13  -2   9   79.30    7.65
 -13   2   9   49.50    6.64
  13  -2  -9   74.25    5.86
 -12  -2   9  115.59    7.82
  12  -2  -9   82.12    7.15
 -12   2   9   69.14    8.25
  11   2  -9    6.03    5.91
 -11   2   9   -9.46    8.79
 -10   2   9  163.18   17.67
  10  -2  -9  149.45   14.20
 -10  -2   9  176.21    7.14
  -9  -2   9    5.72    5.52
   9   2  -9   16.39    5.03
  -8  -2   9    2.37    5.34
   8   2  -9   11.06    4.89
  -7  -2   9   61.57    7.48
   7   2  -9    9.15    6.61
   6   2  -9   68.03    8.93
  -6  -2   9   38.28    9.03
  -5  -2   9   16.19   14.93
   5   2  -9   28.80   14.41
   1  -2  -9   46.46   22.35
  -1   2   9  -35.15   22.55
   0  -2  -9  -18.64   15.52
  -1  -2  -9   81.65   13.27
   1   2   9   88.16   13.91
  -2  -2  -9  -14.99   10.05
   2   2   9  -16.79   10.43
  -3  -2  -9   14.49    8.70
   3   2   9   19.12    8.92
   4   2   9  -13.71    7.65
  -4  -2  -9    5.97    7.76
  -5  -2  -9   18.98    6.96
   5   2   9   24.90    7.15
   6   2   9   14.02    6.29
  -6  -2  -9   16.42    6.50
   7   2   9   -2.77    5.59
  -7  -2  -9    8.82    5.70
   8  -2   9    4.78   17.63
  -8   2  -9   10.96   20.31
  -8  -2  -9   20.24    5.61
   8   2   9   -2.06    5.15
  -9  -2  -9   -2.97    5.24
   9  -2   9   28.05   14.14
  -9   2  -9   -8.13   15.75
   9   2   9   -8.59    4.93
 -10   2  -9   56.88   13.50
  10  -2   9   27.12   11.51
  10   2   9   11.75    5.22
 -10  -2  -9   17.45    5.30
 -11   2  -9   52.59   11.27
  11  -2   9   50.54    9.76
 -11  -2  -9   22.62    5.38
  11   2   9   15.00    5.15
 -12   2  -9  -12.15    8.41
  12  -2   9   -2.96    7.16
  12   2   9   -4.73    4.30
  13  -2   9   -9.78    5.91
 -13   2  -9   10.03    7.68
 -13  -2  -9   11.81    5.02
  13   2   9    9.72    4.12
  14  -2   9   17.70    5.62
 -14   2  -9   -3.19    6.59
 -14  -2  -9    5.06    4.61
  14   2   9   10.78    3.60
 -15   2  -9   -1.65    5.89
  15  -2   9   -8.79    4.10
  15   2   9    4.71    3.41
  16  -2   9   -3.13    3.78
 -16  -2  -9   -1.92    6.51
 -16  -2  -9    3.34    4.00
  16   2   9    4.61    3.08
 -17   2  -9    2.93    4.81
  17  -2   9   -4.43    3.25
 -17  -2  -9   -9.66    3.62
  17   2   9    8.83    2.88
 -17  -2  -9   12.68    6.43
  22  -3  -9   -4.87    4.10
 -22   3   9    8.97    5.92
 -22  -3   9    7.88    7.25
  22   3  -9    4.06    5.01
  21  -3  -9    8.38    4.20
 -21   3   9   11.25    6.12
 -21  -3   9   12.61    7.26
  21   3  -9   -4.87    5.04
  20  -3  -9    8.41    4.29
 -20   3   9   16.75    6.25
 -20  -3   9   12.68    6.97
  20   3  -9   -5.52    5.07
  19  -3  -9    1.84    4.34
 -19   3   9    7.96    5.61
 -19  -3   9   19.69    7.41
  19   3  -9    4.24    5.06
 -18   3   9    4.57    5.97
  18  -3  -9    3.15    4.12
  18   3  -9    0.40    5.45
 -18  -3   9    1.87    7.49
 -17  -3   9   14.86    7.53
 -17   3   9   16.95    5.55
  17  -3  -9    6.14    4.71
  17   3  -9    9.64    6.10
 -16   3   9    5.21    5.50
  16  -3  -9    7.51    4.62
 -16  -3   9    3.23    7.23
  16   3  -9   16.34    6.50
 -15  -3   9   98.65    8.24
  15   3  -9   69.29    6.95
 -15   3   9   63.78    6.53
  14   3  -9   16.90    6.14
  14  -3  -9   14.57    5.30
 -14   3   9    7.08    6.68
 -13  -3   9   39.77    7.61
  13   3  -9   17.70    6.16
  13  -3  -9   23.76    6.81
 -13   3   9   22.87    8.22
 -12  -3   9  123.84    7.96
 -12   3   9   63.16   10.60
  12  -3  -9  117.21    9.45
 -11  -3   9    6.30    6.05
  11   3  -9    7.37    5.55
 -11   3   9    7.34   16.58
  11  -3  -9   20.66   14.22
 -10  -3   9    8.81    6.06
  10   3  -9    7.41    5.62
  -9  -3   9    5.36    5.48
   9   3  -9    6.83    4.98
  -8  -3   9  232.79    7.47
   8   3  -9  180.05    6.97
  -7  -3   9   14.47    5.49
   7   3  -9   17.06    5.03
  -6  -3   9   81.59    7.20
   6   3  -9   69.40    6.85
  -5  -3   9   73.25    8.30
   5   3  -9   86.13    8.42
  -4  -3   9   13.64   13.04
   4   3  -9   21.75   12.90
   3  -3  -9   57.43   18.74
  -3   3   9    5.59   19.85
   2  -3  -9    3.27   13.73
  -2   3   9  -16.51   14.89
   1  -3  -9    6.08   10.73
  -1   3   9   11.33   11.91
   0   3   9   24.53   10.05
   0  -3  -9   19.22    9.48
  -1  -3  -9    2.93    7.74
   1   3   9   -1.17    8.07
   2   3   9    0.46    7.46
  -2  -3  -9   10.72    7.73
  -3  -3  -9   62.70    7.36
   3   3   9   35.90    7.28
   4   3   9   -7.48    5.83
  -4  -3  -9  -10.08    5.71
   5   3   9   19.42    5.59
  -5  -3  -9    5.14    5.47
  -6  -3  -9    0.37    5.42
   6   3   9   10.16    5.50
   7   3   9   16.11    5.23
  -7  -3  -9    7.81    5.28
  -8  -3  -9   20.65    5.18
   8   3   9   17.90    5.33
   9  -3   9    7.20   23.82
  -9  -3  -9    9.52    5.18
   9   3   9    3.63    5.00
 -10   3  -9   33.99   20.68
  10  -3   9   -7.48   16.36
 -10  -3  -9   19.20    5.16
  10   3   9   11.64    4.74
  11  -3   9  -21.61   12.35
 -11   3  -9   16.05   15.49
 -11  -3  -9   -0.27    4.66
  11   3   9   -2.28    4.18
  12  -3   9   16.03    9.50
 -12   3  -9  -23.69   11.65
 -12  -3  -9    8.28    4.64
  12   3   9    3.78    3.83
 -13   3  -9   -6.71   10.01
  13  -3   9    3.85    7.65
  13   3   9    1.25    3.58
 -14   3  -9  -16.21    8.53
  14  -3   9   10.67    6.34
 -14  -3  -9   -1.55    4.14
  14   3   9   -2.52    3.12
  15  -3   9    0.58    5.28
 -15   3  -9    7.54    7.20
 -15  -3  -9    6.00    6.35
  15   3   9   -1.12    2.91
 -15  -3  -9    0.99    3.96
  16  -3   9   -1.06    4.42
 -16   3  -9    8.73    6.75
  16   3   9   -2.52    2.76
 -16  -3  -9    7.01    3.82
 -16  -3  -9   20.60    6.39
  21  -4  -9   -3.64    3.91
 -21   4   9    1.97    5.70
 -21  -4   9    1.67    7.23
  21   4  -9   -5.95    5.01
 -20   4   9   11.08    5.55
  20  -4  -9    6.62    4.18
 -20  -4   9   14.09    7.04
  20   4  -9   10.92    5.62
 -19   4   9   -2.11    5.35
  19  -4  -9   -7.70    3.85
  19   4  -9    4.56    5.29
 -18   4   9    1.85    5.09
  18  -4  -9    4.62    4.12
 -18  -4   9    3.90    6.96
  18   4  -9    6.38    5.15
  17  -4  -9    9.28    4.02
 -17   4   9   10.98    5.28
  17   4  -9   24.65    5.72
 -17  -4   9   16.53    7.38
 -16   4   9   -9.00    5.15
  16  -4  -9    4.02    4.38
  16   4  -9   -0.99    5.57
 -16  -4   9    4.61    7.41
  15  -4  -9   36.51    5.27
 -15   4   9   31.73    6.73
 -15  -4   9   44.34    7.80
  15   4  -9   20.29    6.32
  14   4  -9   16.28    6.26
 -14  -4   9   40.02    7.56
 -14   4   9   20.81    7.63
  14  -4  -9   27.52    6.45
 -13  -4   9   43.44    7.20
  13   4  -9   42.05    6.45
 -13   4   9   45.56   12.30
  13  -4  -9   33.12    8.92
 -12  -4   9   34.07    6.87
  12   4  -9   30.14    5.97
  12  -4  -9   52.74   16.43
 -11  -4   9   29.93    6.73
  11   4  -9   12.92    5.76
  10   4  -9   14.14    5.41
 -10  -4   9   15.74    5.72
  -9  -4   9   21.88    6.30
   9   4  -9   14.56    5.45
  -8  -4   9   30.63    5.49
   8   4  -9   18.57    5.03
  -7  -4   9   32.00    5.38
   7   4  -9   14.24    4.97
   6   4  -9   10.98    5.10
  -6  -4   9    8.83    4.97
  -6   4   9   24.80   27.52
  -5  -4   9  114.75    7.18
   5   4  -9  111.68    7.27
  -5   4   9   64.97   19.13
   5  -4  -9   63.58   17.51
  -4  -4   9   13.67    7.08
   4   4  -9   22.36    7.75
  -4   4   9   39.46   13.81
   4  -4  -9   33.08   12.66
  -3  -4   9   -2.93   10.89
   3   4  -9   13.04   10.61
  -3   4   9   18.02   10.84
   3  -4  -9   -2.46    9.87
   2  -4  -9   20.19    8.58
  -2   4   9  -10.27    8.38
  -1   4   9    9.17    7.62
   1  -4  -9   -5.86    7.08
   0  -4  -9   19.71    6.72
   0   4   9   34.13    7.23
  -1  -4  -9   -1.41    6.09
   1   4   9    3.34    6.16
  -2  -4  -9   18.49    5.60
   2   4   9   23.94    5.97
  -3  -4  -9    8.91    5.33
   3   4   9    9.48    5.42
  -4  -4  -9    0.49    5.40
   4   4   9    6.65    5.44
   5   4   9   40.47    5.70
  -5  -4  -9   34.94    5.76
  -6  -4  -9    3.92    5.07
   6   4   9   15.44    5.45
  -7  -4  -9   -0.79    4.90
   7   4   9    3.78    5.04
  -8  -4  -9   22.82    5.28
   8   4   9   25.86    5.06
  -9  -4  -9    2.53    4.69
   9   4   9    1.41    4.19
 -10  -4  -9   10.52    4.50
  10   4   9    3.21    4.04
 -11  -4  -9   12.01    4.32
  11   4   9    5.66    3.76
  12  -4   9   17.65   14.39
 -12   4  -9  -30.30   19.36
  12   4   9   -2.30    3.42
 -13   4  -9   11.46   14.59
  13  -4   9  -14.48   10.51
  13   4   9   -0.83    3.19
 -13  -4  -9    8.77    3.96
  14  -4   9  -22.04    7.72
 -14   4  -9   21.76   11.95
 -14  -4  -9    7.73    6.05
 -14  -4  -9    8.15    3.75
  14   4   9    5.85    3.38
  15  -4   9    9.31    6.89
 -15   4  -9    7.13    9.83
 -15  -4  -9    6.59    3.91
  15   4   9   -1.26    3.23
 -15  -4  -9    4.38    5.79
 -19   5   9    2.31    4.89
  19  -5  -9    7.16    3.81
 -19  -5   9   11.81    6.95
  19   5  -9    9.59    5.54
 -18   5   9    3.06    5.00
  18  -5  -9    6.41    3.71
 -18  -5   9   11.04    6.70
  18   5  -9   -1.34    5.07
 -17   5   9  -11.80    5.05
  17  -5  -9   -2.19    3.90
 -17  -5   9   13.74    7.00
  17   5  -9   12.03    5.38
  16  -5  -9   13.89    4.87
 -16   5   9   -5.44    6.24
  16   5  -9   18.18    5.39
  15  -5  -9   -2.33    6.08
 -15   5   9  -16.11    7.67
  15   5  -9    7.41    5.63
 -15  -5   9   -8.97    7.04
 -14   5   9  -10.48   12.82
  14  -5  -9   -9.38    8.28
 -14  -5   9    2.39    6.90
  14   5  -9    6.06    5.92
  13   5  -9    7.86    5.81
 -13  -5   9   -2.46    6.47
 -12  -5   9   23.30    6.46
  12   5  -9   13.94    5.74
 -11  -5   9   28.80    6.34
  11   5  -9    4.06    5.37
 -10  -5   9   28.00    6.19
  10   5  -9   16.91    5.56
   9   5  -9   16.70    5.85
  -9  -5   9   25.96    5.99
  -8   5   9   -3.85   23.74
   8   5  -9    8.88    5.34
   7  -5  -9   36.99   15.28
  -7   5   9   -0.31   16.71
  -7  -5   9    4.46    5.27
   7   5  -9   11.79    5.65
  -6   5   9   36.87   13.20
   6  -5  -9   77.70   12.33
   6   5  -9   23.24    5.31
  -6  -5   9   66.55    5.76
   5  -5  -9   19.47    9.75
  -5   5   9    9.84   10.72
   5   5  -9    9.65    5.11
  -5  -5   9    8.22    5.21
  -4  -5   9   -3.15    5.57
   4   5  -9   -4.69    5.12
   4  -5  -9    9.77    7.92
  -4   5   9    6.83    8.53
  -3  -5   9    7.45    5.96
   3   5  -9    7.06    6.75
  -3   5   9   20.65    7.62
   3  -5  -9   19.46    6.84
  -2  -5   9   17.01    9.90
   2   5  -9    8.73    9.19
   2  -5  -9   13.24    6.24
  -2   5   9    2.18    6.58
   1   5  -9   18.10   18.71
  -1   5   9   -3.09    5.98
   1  -5  -9   18.16    5.91
   0  -5  -9   11.81    5.43
   0   5   9   12.26    5.76
  -1  -5  -9    6.72    5.39
   1   5   9   19.10    5.97
  -2  -5  -9   20.49    5.42
   2   5   9   22.15    5.60
  -3  -5  -9    9.52    4.75
   3   5   9   20.17    5.63
  -4  -5  -9    4.92    4.97
   4   5   9   -1.38    5.03
  -5  -5  -9   -3.87    4.51
   5   5   9    1.14    4.73
  -6  -5  -9   -6.00    4.41
   6   5   9    5.72    4.43
  -7  -5  -9    5.55    4.45
   7   5   9    9.64    4.42
  -8  -5  -9    5.18    4.26
   8   5   9    0.65    3.93
  -9  -5  -9    0.40    3.97
   9   5   9    8.51    3.74
  10   5   9    4.36    3.44
 -10  -5  -9   14.65    4.05
  11   5   9    2.13    3.45
 -11  -5  -9    4.53    3.90
 -12  -5  -9    9.05    3.78
  12   5   9    2.85    3.47
 -13  -5  -9    9.80    3.97
  13   5   9   -0.79    3.29
 -13  -5  -9    3.23    5.53
 -17   6   9   -5.73    6.29
  17  -6  -9   -2.03    4.15
 -17  -6   9    8.15    6.63
  17   6  -9   -7.97    5.01
  16  -6  -9    8.97    5.75
 -16   6   9    2.91    8.37
  16   6  -9    7.07    5.01
  15  -6  -9   -3.78    8.21
 -15  -6   9   10.84    6.64
  15   6  -9    1.83    4.91
  14   6  -9   -6.05    4.88
 -14  -6   9   -0.59    6.82
 -13  -6   9    9.35    6.42
  13   6  -9    1.22    5.46
 -12  -6   9   26.95    6.15
  12   6  -9    3.07    5.47
  11   6  -9    6.99    5.15
 -11  -6   9   14.28    5.87
 -10   6   9   28.02   18.78
  10   6  -9    7.09    5.20
 -10  -6   9   11.01    5.41
   9  -6  -9  -16.13   11.97
  -9   6   9   21.77   13.52
  -9  -6   9   12.73    5.86
   9   6  -9   12.01    5.18
   8  -6  -9  -24.70    8.86
  -8   6   9   21.17   11.01
   8   6  -9    5.08    5.33
  -8  -6   9   15.65    5.52
   7  -6  -9   26.21    8.28
  -7   6   9   -0.88    9.18
   6  -6  -9   -1.88    6.81
  -6   6   9    3.71    7.83
  -6  -6   9   14.36    5.07
   6   6  -9    1.52    5.39
  -5   6   9   28.57    7.29
   5  -6  -9   17.87    6.48
   5   6  -9   24.81    5.33
   4  -6  -9   15.70    5.81
  -4   6   9   10.40    6.13
   4   6  -9   17.55    5.01
  -4  -6   9   26.29    5.07
   3   6  -9    3.03    4.60
  -3  -6   9    6.92    4.95
  -3   6   9    8.83    5.40
   3  -6  -9    0.38    4.90
  -2  -6   9    5.10    6.15
   2   6  -9   -5.60    5.89
   2  -6  -9    1.08    4.51
  -2   6   9   -7.75    4.84
   1   6  -9   -1.30    7.43
  -1  -6   9  -13.25    7.78
   0  -6  -9  117.78    6.21
   0   6   9  179.02    7.08
   0   6  -9  124.85   16.65
  -1  -6  -9   26.95    4.93
   1   6   9    6.84    5.33
  -2  -6  -9   -2.00    4.53
   2   6   9    0.85    4.83
  -3  -6  -9   -2.03    4.32
   3   6   9  -11.31    4.38
  -4  -6  -9   23.20    4.63
   4   6   9   -2.04    4.16
  -5  -6  -9    4.79    3.99
   5   6   9    2.11    4.13
  -6  -6  -9   -5.10    3.84
   6   6   9   -0.63    3.79
   7   6   9   -3.40    3.43
  -7  -6  -9    2.25    3.75
   8   6   9   13.09    3.73
  -8  -6  -9    8.95    3.81
  -9  -6  -9    2.02    3.66
   9   6   9    8.13    3.79
 -10  -6  -9    7.39    3.79
  10   6   9   -4.09    3.48
 -11  -6  -9   14.23    4.08
  11   6   9    0.16    3.65
 -14  -7   9   -2.53    6.01
  14   7  -9    1.66    4.77
  13   7  -9   10.32    5.13
 -13  -7   9    6.82    6.27
  12   7  -9    2.20    5.06
 -12  -7   9  -14.29    5.70
 -12   7   9   10.72   15.15
 -11  -7   9    0.66    5.38
  11   7  -9   -3.01    5.15
  11  -7  -9   -9.88    9.19
 -11   7   9   -3.84   10.98
 -10   7   9   -2.88    8.70
  10   7  -9   -1.61    4.58
 -10  -7   9    8.08    5.39
  10  -7  -9   -8.31    6.82
   9   7  -9    1.14    4.76
  -9  -7   9    1.70    5.17
   9  -7  -9    9.04    6.08
  -9   7   9    0.47    7.03
  -8  -7   9    8.08    5.49
   8   7  -9   -3.66    4.65
   8  -7  -9    4.38    5.35
  -8   7   9    5.30    6.50
   7   7  -9    3.53    4.96
  -7  -7   9    5.91    4.98
  -7   7   9    1.65    5.74
   7  -7  -9    3.83    4.83
  -6  -7   9    5.93    5.20
   6   7  -9    2.36    4.70
   6  -7  -9   -2.42    4.41
  -6   7   9   -5.87    4.81
  -5  -7   9    1.68    4.64
   5   7  -9    9.47    4.91
  -5   7   9    2.18    4.62
   5  -7  -9    4.41    4.10
  -4  -7   9   10.83    4.26
   4   7  -9    8.52    4.35
  -4   7   9    5.28    4.68
   4  -7  -9   -7.45    3.72
   3   7  -9   -7.82    4.25
   3  -7  -9   -0.35    3.80
  -3  -7   9   -5.31    4.12
  -2   7   9    2.04    4.51
   2  -7  -9    7.77    3.77
  -2  -7   9   11.81    4.56
   2   7  -9    0.33    4.59
   1  -7  -9    5.97    3.93
  -1   7   9   -2.66    4.31
   1   7  -9   -5.54    5.25
   0  -7  -9    4.33    3.93
   0   7   9    6.16    4.36
   0   7  -9    8.02    6.22
   0  -7   9    4.17    6.76
   1   7   9    1.61    4.11
  -1   7  -9  -22.56   10.92
  -2  -7  -9    3.10    3.81
   2   7   9   10.62    4.18
  -3  -7  -9    2.50    3.72
   3   7   9   -2.89    3.86
  -4  -7  -9    0.13    3.49
   4   7   9    1.58    3.62
   5   7   9    4.53    3.66
  -5  -7  -9   10.40    3.71
   6   7   9    2.32    3.70
  -6  -7  -9   -3.26    3.46
  -7  -7  -9   10.62    3.62
   7   7   9    9.91    3.80
  -8  -7  -9   10.04    3.74
   8   7   9    3.49    3.72
  10   8  -9    3.87    4.93
 -10  -8   9    4.17    5.49
  10  -8  -9    9.62    4.55
 -10   8   9    0.88    5.51
  -9  -8   9   -8.25    4.99
   9   8  -9   -3.78    4.81
  -9   8   9    6.62    4.93
   9  -8  -9    7.38    4.10
   8   8  -9    1.02    4.58
  -8  -8   9    9.65    5.00
   8  -8  -9    1.30    3.68
  -8   8   9    1.38    4.28
   7   8  -9    0.16    4.42
  -7  -8   9    3.67    4.99
  -7   8   9    0.92    4.05
   7  -8  -9    4.14    3.42
   6   8  -9    2.00    4.58
  -6  -8   9    1.44    4.87
  -6   8   9    2.91    3.99
   6  -8  -9   -0.67    3.11
  -5   8   9    7.19    4.09
   5   8  -9    5.25    4.56
  -5  -8   9   -0.24    4.53
  -4  -8   9    9.70    4.51
   4   8  -9    5.76    4.31
  -4   8   9   -3.66    3.86
   4  -8  -9   -4.27    2.96
  -3  -8   9    1.84    4.16
  -3   8   9   -5.57    3.78
   2   8  -9    1.38    4.11
  -2  -8   9    8.75    4.00
   2  -8  -9    6.58    3.32
  -2   8   9    6.05    3.88
   1  -8  -9    0.25    3.29
  -1   8   9    3.49    3.69
  -1  -8   9    4.98    3.94
   1   8  -9    3.18    4.26
   0  -8  -9    8.59    3.38
   0   8   9    8.86    3.87
   0   8  -9    5.08    4.51
   0  -8   9    8.63    4.74
  -1  -8  -9   -5.41    3.30
   1   8   9    4.42    3.62
  -1   8  -9   15.07    6.13
   1  -8   9   17.17    6.24
   2   8   9    3.55    3.88
  -2  -8  -9   -3.05    3.38
   2  -8   9    2.47   12.20
  -2   8  -9    5.95    9.02
   3   8   9   17.63    4.38
  -3  -8  -9   12.96    3.79
  -4  -8  -9    6.39    3.65
   4   8   9    3.29    4.17
 -23   0  10    1.38    7.24
  23   0 -10    4.82    5.10
 -22   0  10   17.54    7.21
  22   0 -10    8.02    5.34
  21   0 -10    7.70    5.25
 -21   0  10   13.56    6.80
  20   0 -10    0.71    4.60
 -20   0  10   10.21    6.64
 -19   0  10   11.87    6.83
  19   0 -10    3.00    4.99
 -18   0  10   13.21    6.57
  18   0 -10    6.10    5.04
  17   0 -10   25.66    5.73
 -17   0  10   35.24    6.73
 -16   0  10   60.75    7.34
  16   0 -10   31.12    5.59
 -15   0  10    5.77    5.81
  15   0 -10   12.22    5.94
 -14   0  10   20.42    5.91
  14   0 -10   21.28    5.31
 -13   0  10   91.87    6.87
  13   0 -10   68.50    5.97
 -12   0  10    6.19    5.70
  12   0 -10   16.36    5.31
 -11   0  10   61.97    7.18
  11   0 -10   53.92    6.70
 -10   0  10   12.66    7.83
  10   0 -10  294.25   11.16
  -9   0  10  166.69   12.67
   9   0 -10  187.65   12.28
  -8   0  10   61.78   17.74
   8   0 -10  139.87   19.20
  -3   0 -10    0.60   28.99
   3   0  10  -14.19   28.71
   4   0  10   20.74   20.63
  -4   0 -10  -27.61   21.23
  -5   0 -10   93.56   17.82
   5   0  10  -12.34   14.97
  -6   0 -10  -13.06   12.93
   6   0  10    5.84   12.96
  -7   0 -10   -7.03   11.19
   7   0  10    7.69   11.10
  -8   0 -10   42.18   10.80
   8   0  10   23.91    9.78
  -9   0 -10  -11.82    8.67
   9   0  10    5.21    8.48
 -10   0 -10   20.41    8.28
  10   0  10   -1.86    7.15
 -11   0 -10   -6.72    7.04
  11   0  10   11.41    6.49
  12   0  10    9.54    5.55
 -12   0 -10    1.01    6.29
 -13   0 -10    4.08    5.53
  13   0  10    1.56    4.71
  14   0  10    7.76    4.22
 -14   0 -10   -7.75    4.85
  15   0  10    5.55    3.78
 -15   0 -10    8.74    4.76
  16   0  10   -1.16    3.17
 -16   0 -10   -0.15    4.58
  23  -1 -10   -4.94    4.31
 -23   1  10    2.91    6.35
  23   1 -10   -4.13    4.59
 -23  -1  10   -1.94    7.47
  22  -1 -10    3.55    4.74
 -22   1  10   -3.53    6.37
 -22  -1  10   14.81    7.72
  22   1 -10    9.30    5.14
  21  -1 -10    7.48    4.76
 -21  -1  10    7.98    7.22
 -21   1  10    8.54    6.25
  21   1 -10   -1.52    5.46
 -20   1  10   10.16    6.84
  20   1 -10   -8.64    5.03
 -20  -1  10    9.92    6.93
  20  -1 -10   -1.79    4.39
 -19   1  10   -0.69    6.01
 -19  -1  10   15.27    6.90
  19  -1 -10    4.12    4.97
  19   1 -10    3.44    5.10
  18  -1 -10   -1.85    4.84
  18   1 -10   -1.55    5.06
 -18  -1  10    3.28    6.29
 -18   1  10    8.58    6.11
 -17  -1  10    2.59    6.69
 -17   1  10   -3.55    6.44
  17   1 -10   -5.90    5.21
 -16  -1  10   26.03    6.59
  16   1 -10    5.66    5.55
 -16   1  10   20.39    6.02
  16  -1 -10   -0.14    5.23
 -15   1  10   20.76    5.72
  15  -1 -10    3.52    4.89
 -15  -1  10   29.91    6.58
  15   1 -10    9.88    5.35
  14  -1 -10   23.95    5.14
  14   1 -10   13.03    5.89
 -14   1  10   24.76    6.17
 -13  -1  10   17.79    6.20
  13   1 -10   13.83    5.25
 -13   1  10   33.47    6.36
  13  -1 -10   21.80    5.30
 -12  -1  10   14.61    5.90
  12   1 -10   13.50    5.24
  12  -1 -10    5.84    6.27
 -12   1  10   -2.73    7.14
  11   1 -10   24.50    5.40
  11  -1 -10   52.95    8.07
 -11  -1  10   43.71    6.04
 -10  -1  10    6.00    6.34
 -10   1  10    4.46   12.25
  10  -1 -10    9.18   10.73
  10   1 -10   12.52    5.75
   9  -1 -10   92.02   18.86
  -9  -1  10  206.55   10.00
   8   1 -10   69.33   10.17
  -8  -1  10   85.93   10.62
  -7  -1  10   28.29   16.43
   7   1 -10   14.72   15.59
   1   1  10    6.64   28.96
  -1  -1 -10   11.63   27.66
   2   1  10   -6.66   20.81
  -3  -1 -10   -5.01   15.60
   3   1  10   11.00   16.22
  -4  -1 -10   13.81   12.21
   4   1  10    6.39   12.84
   5  -1  10  -49.28   28.31
   5   1  10  -14.29   10.43
  -6   1 -10   17.21   21.44
   6  -1  10  -49.66   19.59
  -6  -1 -10    4.47    9.03
   6   1  10    0.21    8.74
  -7   1 -10   34.21   17.33
   7   1  10    0.58    7.82
  -7  -1 -10    2.29    8.18
  -8  -1 -10    9.05    7.76
   8   1  10   14.79    7.41
   8  -1  10   -9.71   12.43
  -8   1 -10   30.21   14.34
  -9   1 -10   17.56   12.08
   9  -1  10   17.49   11.40
  -9  -1 -10   16.49    7.37
   9   1  10    1.00    6.58
  10   1  10   26.74    6.25
  10  -1  10   16.31    9.30
 -10   1 -10   51.80   11.10
 -10  -1 -10   34.20    7.00
  11   1  10   -2.80    5.05
 -11  -1 -10   10.43    6.01
 -11   1 -10    1.91    8.86
  11  -1  10   15.94    7.75
 -12   1 -10   24.83    8.17
  12  -1  10   21.90    6.80
 -12  -1 -10   23.64    5.63
  12   1  10   11.23    4.94
  13   1  10    8.37    4.25
  13  -1  10   15.72    5.89
 -13   1 -10   11.80    7.10
 -13  -1 -10    9.37    5.10
  14   1  10    8.61    3.96
 -14  -1 -10    2.29    4.63
  14  -1  10   -2.69    4.67
 -14   1 -10   10.05    6.15
 -15  -1 -10   12.46    4.53
  15   1  10    7.27    3.84
  15  -1  10   -1.93    3.94
 -15   1 -10    9.04    5.64
 -16  -1 -10   -4.27    4.33
  16   1  10    1.12    3.34
 -16   1 -10    3.79    5.10
  16  -1  10   -4.34    3.41
  22  -2 -10    1.72    4.18
 -22   2  10   10.00    6.11
  22   2 -10   12.06    5.09
 -22  -2  10    4.26    7.51
 -21   2  10   -1.30    6.27
  21  -2 -10    1.60    4.30
  21   2 -10   -3.49    4.91
 -21  -2  10    3.73    7.67
  20  -2 -10   -2.12    4.70
 -20  -2  10   -1.28    7.29
 -20   2  10   -1.02    6.13
  20   2 -10   -0.66    5.74
 -19   2  10    7.33    6.23
  19   2 -10    6.56    5.44
 -19  -2  10    5.05    7.02
  18   2 -10   14.41    5.33
 -18  -2  10    9.17    6.97
 -18   2  10   -0.16    6.11
  18  -2 -10   -9.69    4.46
 -17   2  10   17.18    5.79
  17   2 -10   17.49    5.74
  17  -2 -10   12.55    4.76
 -17  -2  10   -4.07    6.42
 -16   2  10   11.59    5.80
  16  -2 -10   16.02    4.85
 -16  -2  10   22.86    6.89
  16   2 -10   11.62    5.37
 -15  -2  10   11.47    6.75
  15   2 -10   10.35    5.95
  15  -2 -10   -4.33    4.68
 -15   2  10   12.42    6.00
 -14  -2  10   14.97    6.85
  14   2 -10   23.38    5.92
 -14   2  10   15.38    6.64
  14  -2 -10   23.86    5.42
 -13  -2  10   34.78    7.60
  13   2 -10    7.42    6.01
 -13   2  10   29.04    8.18
  13  -2 -10    9.61    6.59
 -12  -2  10   63.69    6.72
  12   2 -10   60.22    6.19
  12  -2 -10  114.22    9.12
 -12   2  10   69.68   10.22
  11   2 -10   16.98    5.22
 -11   2  10   11.54   13.98
  11  -2 -10   -5.40   12.03
 -10  -2  10   -1.87    5.42
  10   2 -10    6.54    5.05
   9   2 -10    3.21    5.16
  -9  -2  10    4.88    5.88
  -8  -2  10   17.10    7.45
   8   2 -10   40.50    7.19
   7   2 -10    1.55    8.01
  -7  -2  10   -2.88    8.50
  -6  -2  10  -29.27   13.16
   6   2 -10    8.41   13.05
  -1   2  10   52.81   26.47
   1  -2 -10   13.88   24.79
   0   2  10   15.18   19.37
   0  -2 -10    3.13   18.33
   1   2  10  -32.07   14.79
  -1  -2 -10  -33.49   13.70
  -2  -2 -10   14.26   11.81
   2   2  10   11.04   12.22
  -3  -2 -10  -16.35    9.81
   3   2  10   10.91   10.33
  -4  -2 -10   13.58    8.59
   4   2  10   17.99    9.05
   5   2  10    9.95    8.03
  -5  -2 -10   -3.69    7.66
  -6  -2 -10   12.19    7.30
   6   2  10   15.15    7.43
   7  -2  10  -26.06   28.55
   7   2  10    9.43    6.52
  -8   2 -10   16.00   22.84
   8  -2  10   10.66   20.60
  -8  -2 -10   11.35    6.04
   8   2  10   11.81    6.02
  -9   2 -10   16.43   18.36
   9  -2  10   23.57   15.74
  -9  -2 -10    9.76    5.79
   9   2  10   15.76    5.69
  10   2  10   22.91    5.67
  10  -2  10   58.48   13.10
 -10   2 -10   48.69   15.16
 -10  -2 -10   23.69    5.84
  11   2  10    5.79    4.72
 -11  -2 -10   10.26    5.44
  11  -2  10   12.37   10.28
 -11   2 -10   10.70   11.93
 -12  -2 -10   15.86    5.08
  12   2  10    3.15    4.63
 -12   2 -10    5.72   10.08
  12  -2  10    5.09    8.18
 -13  -2 -10   -0.72    4.89
  13   2  10   12.46    4.37
 -13   2 -10    0.68    8.31
  13  -2  10   11.14    6.76
 -14  -2 -10   -1.69    4.78
  14   2  10    5.14    3.90
  14  -2  10    5.24    5.66
 -14   2 -10    3.68    7.59
 -15  -2 -10   11.79    4.60
  15   2  10    4.66    3.38
 -15   2 -10    4.51    6.95
  15  -2  10   -6.22    4.63
 -16  -2 -10   -7.67    4.16
  16   2  10   -7.93    2.98
 -16   2 -10   -0.37    5.98
  16  -2  10   -3.34    4.14
  21  -3 -10   -0.16    4.28
 -21   3  10   11.51    5.88
 -21  -3  10   -5.07    7.30
  21   3 -10   -5.32    4.96
 -20   3  10   -2.87    5.97
  20  -3 -10    0.87    4.27
  20   3 -10    6.62    5.28
 -20  -3  10   -0.23    7.43
 -19   3  10   -4.86    5.58
  19  -3 -10   12.44    4.59
 -19  -3  10   -2.80    7.26
  19   3 -10    8.68    5.59
 -18   3  10    2.68    5.61
 -18  -3  10   -1.35    6.77
  18  -3 -10    2.73    4.02
  18   3 -10    3.96    5.57
  17  -3 -10    2.60    4.22
  17   3 -10   19.84    5.78
 -17  -3  10    6.35    6.99
 -17   3  10    4.81    5.56
  16   3 -10    7.44    5.62
  16  -3 -10    9.02    4.66
 -16  -3  10    4.22    6.58
 -16   3  10   -2.31    5.59
  15   3 -10   35.26    6.33
 -15  -3  10   24.88    7.81
 -15   3  10   22.95    7.20
  15  -3 -10   20.35    5.52
 -14  -3  10  232.18    9.87
  14  -3 -10  159.31    8.71
  13   3 -10   21.75    6.30
 -13  -3  10   12.04    6.88
 -13   3  10   21.29   10.37
  13  -3 -10    7.76    8.41
 -12  -3  10    9.13    6.84
  12   3 -10    5.74    5.95
 -12   3  10   31.29   16.72
  12  -3 -10   16.60   13.02
 -11  -3  10   18.28    5.81
  11   3 -10    5.17    5.46
 -10  -3  10   25.85    5.70
  10   3 -10    8.44    5.28
   9   3 -10   12.30    5.27
  -9  -3  10   15.77    5.73
  -8  -3  10   14.73    5.76
   8   3 -10    9.00    5.07
   7   3 -10   15.04    6.62
  -7  -3  10    8.67    6.74
  -6  -3  10   26.85    8.09
   6   3 -10   24.04    8.21
  -5  -3  10   10.41   12.20
   5   3 -10   13.77   12.67
   4   3 -10   55.00   19.81
  -3   3  10   -7.53   23.02
   3  -3 -10  -61.47   21.29
  -2   3  10  -14.81   17.05
   2  -3 -10   18.42   16.06
  -1   3  10   49.56   14.50
   1  -3 -10   49.04   13.50
   0   3  10    4.45   11.85
   0  -3 -10    6.30   10.90
  -1  -3 -10   15.63    9.71
   1   3  10    4.60    9.96
   2   3  10   -4.08    8.85
  -2  -3 -10   -3.99    8.09
   3   3  10  -19.43    7.83
  -3  -3 -10    2.15    7.81
  -4  -3 -10   41.70    7.85
   4   3  10   29.64    8.05
   5   3  10   23.00    6.86
  -5  -3 -10   31.20    6.93
   6   3  10   17.06    6.19
  -6  -3 -10    8.00    6.00
   7   3  10   27.58    5.98
  -7  -3 -10   31.36    6.05
  -8  -3 -10    8.55    5.55
   8   3  10    6.45    5.25
   9   3  10   13.28    4.76
  -9  -3 -10   20.81    5.23
  10  -3  10  -12.56   17.84
 -10   3 -10    5.05   22.73
  11  -3  10   -7.73   13.91
 -11   3 -10  -15.00   16.68
 -11  -3 -10    2.22    4.70
  11   3  10    4.37    4.38
  12  -3  10   -2.67   10.24
 -12   3 -10  -27.55   13.31
 -13  -3 -10    0.46    4.63
  13   3  10    5.71    3.69
 -13   3 -10   -3.06   11.03
  13  -3  10   13.11    8.80
 -14  -3 -10    6.70    4.37
  14   3  10   10.43    3.61
 -14   3 -10   20.67    9.69
  14  -3  10  -10.38    6.73
 -15  -3 -10   10.40    4.22
  15   3  10   -4.18    3.08
 -15   3 -10    8.81    8.02
  15  -3  10    5.76    5.90
 -20   4  10   -5.30    5.10
  20  -4 -10    7.49    4.37
 -20  -4  10   -7.97    6.81
  20   4 -10    1.79    4.99
 -19   4  10    4.44    5.14
  19  -4 -10   -3.94    3.81
  19   4 -10    0.22    5.02
 -19  -4  10   -4.35    7.22
 -18   4  10    8.42    5.45
 -18  -4  10    6.01    7.13
  18  -4 -10   10.47    3.97
  18   4 -10   -2.68    5.44
  17  -4 -10    3.90    4.17
 -17   4  10   -1.08    5.22
 -17  -4  10    5.72    6.83
  17   4 -10    8.40    5.62
  16   4 -10    1.96    5.58
 -16  -4  10    0.36    6.55
  16  -4 -10   18.44    5.17
 -16   4  10   17.22    6.62
 -15  -4  10   12.14    6.96
  15   4 -10   -5.43    5.30
 -15   4  10   14.48    7.80
  15  -4 -10    2.92    6.43
  14   4 -10    5.43    5.61
 -14   4  10  -15.59   11.23
 -13  -4  10   24.73    7.19
  13   4 -10   14.28    6.12
  13  -4 -10    5.08   14.14
  12   4 -10   10.11    5.83
 -12  -4  10   35.45    6.75
 -11  -4  10   17.78    6.58
  11   4 -10   10.39    5.42
 -10  -4  10    3.05    5.63
  10   4 -10    8.17    5.77
  -9  -4  10   23.74    5.64
   9   4 -10   18.94    5.41
   8   4 -10    9.69    5.06
  -8  -4  10    3.10    5.38
   7   4 -10   -2.86    5.15
  -7  -4  10    9.51    5.33
   6   4 -10   52.42    7.14
  -6  -4  10   90.54    7.51
  -5  -4  10   74.30    8.01
   5   4 -10   89.95    9.25
  -5   4  10   72.43   23.57
   5  -4 -10   82.22   22.00
  -4  -4  10   -5.73   11.27
   4   4 -10   26.08   10.96
  -4   4  10    3.34   16.63
   4  -4 -10    9.08   15.26
   3   4 -10   75.53   20.59
  -3   4  10   47.08   13.24
   3  -4 -10   32.78   12.08
   2  -4 -10  -20.69    9.56
  -2   4  10   -2.99   11.00
   1  -4 -10  -15.77    8.25
  -1   4  10  -15.28    8.84
   0   4  10    2.66    8.43
   0  -4 -10    1.63    7.65
  -1  -4 -10   18.90    7.40
   1   4  10    7.99    7.70
  -2  -4 -10    4.62    6.83
   2   4  10    9.28    6.99
   3   4  10   22.29    6.58
  -3  -4 -10   22.15    6.43
   4   4  10    9.82    5.91
  -4  -4 -10    5.64    5.63
  -5  -4 -10   14.37    5.52
   5   4  10   23.61    5.83
  -6  -4 -10    7.51    5.22
   6   4  10   13.40    5.18
  -7  -4 -10    6.29    4.80
   7   4  10   13.85    5.27
  -8  -4 -10   16.95    4.96
   8   4  10   -0.58    4.85
  -9  -4 -10    3.40    4.68
   9   4  10    4.85    4.24
 -10  -4 -10    8.63    4.61
  10   4  10   17.42    4.32
 -11  -4 -10    5.57    4.41
  11   4  10    5.90    3.65
  12  -4  10  -19.18   14.98
 -12  -4 -10   -5.80    4.10
 -13   4 -10   11.45   16.82
  13  -4  10   -4.62   11.72
 -13  -4 -10   -1.79    3.96
  13   4  10    6.96    3.40
  14  -4  10   20.39    9.31
 -14  -4 -10   -0.31    4.04
  14   4  10    4.58    3.09
 -14   4 -10    7.92   13.35
 -19   5  10    4.00    5.20
  19  -5 -10   -0.92    3.64
 -19  -5  10    5.64    6.77
  19   5 -10    5.20    4.99
 -18   5  10    2.02    5.49
  18  -5 -10   -0.34    3.84
  18   5 -10    5.12    5.27
 -18  -5  10    2.03    7.00
  17  -5 -10    1.37    4.45
 -17   5  10   -7.12    6.38
  17   5 -10    0.88    5.33
 -17  -5  10   -4.32    6.92
  16  -5 -10   14.12    6.30
 -16   5  10   14.29    7.97
 -16  -5  10    1.78    6.83
  16   5 -10    3.12    5.53
  15   5 -10    5.93    5.63
 -15  -5  10    3.08    6.71
 -15   5  10    0.67   12.05
  15  -5 -10   -4.12    8.04
 -14  -5  10   45.52    6.98
  14   5 -10   18.64    5.78
  14  -5 -10   48.48   15.74
  13   5 -10   10.36    5.34
 -13  -5  10   20.38    6.58
 -12  -5  10    3.68    6.46
  12   5 -10    2.17    5.42
  11   5 -10   10.90    5.79
 -11  -5  10   10.05    6.07
 -10  -5  10   15.03    6.13
  10   5 -10    1.20    5.05
  -9  -5  10   22.44    5.89
   9   5 -10    8.59    5.62
  -8  -5  10   27.16    5.65
   8   5 -10   -0.13    4.86
  -7   5  10   38.46   20.05
   7  -5 -10   -2.14   17.83
   7   5 -10    5.05    5.06
  -7  -5  10   24.00    5.51
  -6   5  10   28.61   15.30
   6   5 -10    4.45    5.20
  -6  -5  10   14.50    5.28
   6  -5 -10    9.31   13.62
  -5  -5  10   16.43    6.06
   5   5 -10    7.60    5.88
  -5   5  10    1.48   12.19
   5  -5 -10    0.53   11.02
  -4  -5  10    9.80    6.55
   4   5 -10   -0.63    7.16
   4  -5 -10   26.05    9.56
  -4   5  10   20.94   10.32
  -3  -5  10    9.37    9.05
   3   5 -10   18.59    9.67
  -3   5  10   19.22    8.62
  -2  -5  10    6.68   16.31
   2   5 -10   21.88   17.12
  -2   5  10   19.95    8.09
   2  -5 -10   -7.17    6.87
   1  -5 -10   -7.80    6.65
  -1   5  10    8.03    7.53
   0  -5 -10   49.71    7.03
   0   5  10   11.54    6.82
  -1  -5 -10   22.74    6.10
   1   5  10   27.69    6.33
  -2  -5 -10   15.53    5.49
   2   5  10   20.39    5.71
   3   5  10    3.88    5.34
  -3  -5 -10   -7.50    5.02
   4   5  10   12.83    4.93
  -4  -5 -10   -4.23    4.76
  -5  -5 -10   -4.51    4.30
   5   5  10    5.01    4.94
  -6  -5 -10    0.28    4.67
   6   5  10    5.10    4.67
  -7  -5 -10   12.21    4.63
   7   5  10    6.00    4.48
  -8  -5 -10   -6.15    4.18
   8   5  10    4.21    4.19
  -9  -5 -10    4.95    4.23
   9   5  10    7.83    3.96
 -10  -5 -10   13.39    4.15
 -11  -5 -10    0.89    3.88
  11   5  10   -4.27    3.27
  12   5  10    3.86    3.13
 -12  -5 -10   -4.54    3.69
  17  -6 -10    8.67    5.98
 -17   6  10    1.92    8.33
  17   6 -10    5.39    4.92
 -17  -6  10    1.99    6.84
 -16   6  10    4.29   14.29
  16  -6 -10    4.73    7.76
  16   6 -10    2.68    4.96
 -16  -6  10   15.93    7.08
 -15  -6  10    6.19    6.47
  15   6 -10   -1.80    5.11
  14   6 -10   17.27    5.67
 -14  -6  10   -1.45    6.09
  13   6 -10    7.38    5.38
 -13  -6  10   20.73    6.21
  12   6 -10    9.87    5.18
 -12  -6  10    6.48    5.64
 -11  -6  10    9.60    5.93
  11   6 -10    1.00    4.80
 -10  -6  10   -4.76    5.65
  10   6 -10    5.43    5.40
  -9   6  10   -4.21   15.80
   9  -6 -10   -7.35   13.72
  -9  -6  10   -0.82    5.54
   9   6 -10    6.16    5.12
   8  -6 -10    6.05   10.78
  -8  -6  10   21.93    6.00
   8   6 -10    3.78    5.25
  -8   6  10   28.17   12.66
  -7  -6  10    0.95    5.15
   7   6 -10    0.69    4.96
  -7   6  10    2.73   10.40
   7  -6 -10   11.14    8.80
  -6  -6  10   10.82    5.02
   6   6 -10   -1.40    4.85
   6  -6 -10   -7.07    7.74
  -6   6  10    8.26    8.98
   5   6 -10    5.22    5.03
  -5  -6  10   -0.65    5.01
   5  -6 -10    8.76    6.79
  -5   6  10    6.88    7.75
  -4  -6  10   -5.56    5.28
   4   6 -10    1.59    5.04
  -4   6  10   10.51    6.96
  -3  -6  10   -2.09    6.15
   3   6 -10   -0.74    6.21
   3  -6 -10   -2.99    5.44
  -3   6  10    9.23    6.29
   2   6 -10   -2.83    7.43
  -2  -6  10    0.20    8.03
  -2   6  10   10.27    5.49
   2  -6 -10    0.15    5.01
  -1  -6  10  -19.80   14.24
   1   6 -10   -9.21   13.70
   0  -6 -10   -5.34    4.48
   0   6  10    3.06    5.23
   1   6  10    7.24    4.97
  -1  -6 -10   24.35    4.88
   2   6  10   29.79    5.18
  -2  -6 -10   12.38    4.35
  -3  -6 -10   -5.16    4.12
   3   6  10    9.46    4.94
  -4  -6 -10   -4.69    4.16
   4   6  10   -6.05    4.31
  -5  -6 -10   -3.43    3.99
   5   6  10    2.87    4.15
  -6  -6 -10    1.29    4.02
   6   6  10    2.30    4.07
  -7  -6 -10   15.80    4.11
   7   6  10    9.57    3.89
  -8  -6 -10   11.11    4.04
   8   6  10   -2.27    3.41
  -9  -6 -10   -5.62    3.59
   9   6  10    6.88    3.53
  10   6  10   -0.73    3.26
 -10  -6 -10    7.18    3.76
 -14  -7  10   -3.62    6.03
  14   7 -10   14.94    5.61
 -13  -7  10   31.02    6.26
  13   7 -10    4.36    5.19
 -12   7  10    5.95   18.45
  12   7 -10    6.16    5.09
 -12  -7  10    1.53    5.71
 -11   7  10   24.23   13.95
  11  -7 -10    1.57   11.14
  11   7 -10   14.17    4.75
 -11  -7  10   16.14    5.43
  10  -7 -10    3.67    8.41
 -10   7  10   -3.14   10.20
 -10  -7  10   17.38    5.80
  10   7 -10    6.53    4.72
  -9   7  10    1.46    8.74
   9  -7 -10   -2.91    6.89
  -9  -7  10    5.06    5.52
   9   7 -10    8.11    4.99
   8  -7 -10   -6.36    6.03
  -8   7  10    5.01    7.47
   8   7 -10    3.73    4.87
  -8  -7  10    3.74    5.23
   7  -7 -10   -4.11    5.33
  -7   7  10   -6.36    6.54
  -7  -7  10    4.11    5.50
   7   7 -10    3.28    4.69
  -6   7  10    3.91    6.07
   6  -7 -10    0.17    5.03
  -6  -7  10    9.10    4.72
   6   7 -10   -3.37    4.92
   5  -7 -10    1.68    4.67
  -5   7  10   -3.72    5.25
  -5  -7  10    4.77    4.48
   5   7 -10   11.60    4.62
  -4   7  10   -1.89    4.78
   4  -7 -10   -1.41    4.07
   4   7 -10   -0.13    4.51
  -3  -7  10    2.26    4.84
   3   7 -10   -1.82    4.39
   3  -7 -10   -0.13    3.86
  -3   7  10   -4.50    4.41
   2  -7 -10   -1.54    3.85
  -2  -7  10   -2.71    5.62
   2   7 -10   -1.41    5.48
  -2   7  10   -8.43    4.36
   1   7 -10   -1.12    6.40
  -1  -7  10   17.55    7.23
  -1   7  10    7.42    4.47
   1  -7 -10   15.03    4.18
   0  -7  10   -3.51   12.67
   0   7 -10  -16.55   10.55
   0   7  10    1.56    4.31
   0  -7 -10   -6.52    3.47
  -1  -7 -10    7.12    3.85
   1   7  10    6.21    4.30
  -2  -7 -10    3.08    3.77
   2   7  10    1.72    4.07
  -3  -7 -10    5.64    3.86
   3   7  10    1.44    3.87
  -4  -7 -10    2.53    3.77
   4   7  10    1.07    3.69
  -5  -7 -10   -3.75    3.44
   5   7  10   -7.51    3.39
  -6  -7 -10    1.31    3.57
   6   7  10   -2.62    3.33
   7   7  10   -2.64    3.26
  -7  -7 -10    3.95    3.53
   9   8 -10   -3.20    4.46
  -9  -8  10   -6.88    5.02
  -8   8  10   -5.28    5.18
   8  -8 -10    1.45    4.24
  -8  -8  10    3.29    5.23
   8   8 -10    0.17    4.47
   7  -8 -10    0.15    3.81
  -7   8  10    6.30    4.62
   7   8 -10    4.86    4.65
  -7  -8  10    9.05    4.74
  -6   8  10   10.83    4.38
   6  -8 -10   -0.14    3.52
  -6  -8  10    9.30    5.00
   6   8 -10    0.61    4.47
  -5   8  10    1.77    4.26
   5  -8 -10   -5.85    3.24
  -5  -8  10    0.70    4.21
   5   8 -10   -2.78    4.79
  -4   8  10    0.34    3.92
   4  -8 -10   -4.32    3.32
  -4  -8  10   -4.04    4.04
   4   8 -10    0.80    4.30
  -3   8  10    1.83    4.09
   3  -8 -10    4.49    3.29
  -3  -8  10   -5.00    4.02
   3   8 -10   -7.51    3.98
   2  -8 -10    6.62    3.30
  -2   8  10    1.77    4.04
  -2  -8  10    0.34    4.23
   2   8 -10   -0.62    4.33
   1  -8 -10    6.95    3.45
  -1   8  10   -4.48    3.80
   1   8 -10    3.37    5.03
  -1  -8  10   -0.27    5.01
   0  -8 -10    3.45    3.45
   0   8  10  -10.76    3.73
   0   8 -10    1.67    6.41
   0  -8  10   -2.90    5.99
  -1  -8 -10    8.04    3.57
   1   8  10    3.83    4.35
   1  -8  10   -7.97   10.16
  -1   8 -10   -3.04    8.65
  -2  -8 -10   18.41    3.88
   2   8  10   32.13    4.47
  -2   8 -10   44.00   19.33
  22   0 -11   10.91    4.77
 -22   0  11    9.66    6.67
  21   0 -11    1.85    4.71
 -21   0  11    8.43    6.78
 -20   0  11    6.96    6.79
  20   0 -11   10.37    5.00
  19   0 -11    2.83    5.12
 -19   0  11   20.17    6.65
 -18   0  11  -12.50    6.27
  18   0 -11   16.98    5.25
 -17   0  11   17.71    6.86
  17   0 -11    0.80    5.27
 -16   0  11    6.01    6.08
  16   0 -11   14.77    5.36
 -15   0  11    4.95    5.70
  15   0 -11   10.38    5.14
  14   0 -11   -1.95    4.99
 -14   0  11   -4.52    5.91
 -13   0  11    5.65    6.11
  13   0 -11   -5.54    5.18
  12   0 -11   11.45    6.73
 -12   0  11   25.39    7.60
 -11   0  11  -20.20    7.73
  11   0 -11    4.66    8.31
 -10   0  11   -6.74   10.71
  10   0 -11   28.74   10.45
   9   0 -11  -26.02   15.72
  -9   0  11   -7.76   17.07
   3   0  11  -71.98   31.09
  -4   0 -11  -28.57   24.61
   4   0  11   37.84   23.41
  -5   0 -11  -23.85   19.54
   5   0  11   -5.16   18.06
   6   0  11   33.54   14.61
  -6   0 -11   40.50   15.71
  -7   0 -11   44.63   13.65
   7   0  11   32.23   12.99
  -8   0 -11  -20.56   11.22
   8   0  11    8.93   10.83
  -9   0 -11  -25.84    9.06
   9   0  11    0.71    8.98
  10   0  11   -0.22    7.73
 -10   0 -11   13.53    8.18
 -11   0 -11   13.21    7.86
  11   0  11    1.43    6.89
 -12   0 -11   23.46    7.14
  12   0  11   18.79    6.00
  13   0  11    5.02    4.92
 -13   0 -11    8.98    6.36
 -14   0 -11   11.72    5.70
  14   0  11    2.07    4.35
 -15   0 -11    5.08    5.19
  15   0  11   -5.16    3.86
  22  -1 -11    9.42    4.55
 -22   1  11    1.23    6.62
 -22  -1  11    2.34    6.71
  22   1 -11   -7.52    4.78
 -21  -1  11    1.83    6.98
 -21   1  11   -1.16    6.41
  21  -1 -11   -2.34    4.62
  21   1 -11   -3.57    4.64
  20  -1 -11    6.77    4.96
  20   1 -11   12.09    5.13
 -20   1  11    4.08    6.28
 -20  -1  11   25.41    6.84
 -19  -1  11    8.67    6.90
 -19   1  11   -7.97    6.40
  19   1 -11    3.93    4.94
  19  -1 -11   -0.79    4.68
 -18  -1  11   17.79    6.76
  18   1 -11   -4.85    5.08
 -18   1  11    6.55    6.05
  18  -1 -11   -2.72    4.89
  17   1 -11    2.80    5.32
 -17   1  11   24.48    6.15
  17  -1 -11    9.63    4.68
 -17  -1  11   22.69    6.49
 -16   1  11   14.99    5.99
  16  -1 -11   12.47    4.83
 -16  -1  11   -0.85    6.72
  16   1 -11   17.25    5.63
 -15  -1  11   12.23    5.97
  15   1 -11    8.68    5.58
  15  -1 -11    9.09    5.08
 -15   1  11    3.71    6.00
 -14  -1  11   24.63    6.08
  14   1 -11   17.36    5.38
  14  -1 -11   11.52    5.33
 -14   1  11    3.61    6.48
  13   1 -11   28.48    5.82
 -13  -1  11   42.30    6.69
  13  -1 -11   16.64    6.82
 -13   1  11   44.29    8.34
  12  -1 -11   45.26    8.28
  12   1 -11   21.02    5.73
 -12  -1  11   35.81    6.49
 -11  -1  11   -9.35    6.67
 -11   1  11    5.95   12.50
  11   1 -11   16.85    6.19
  11  -1 -11   16.46   10.99
 -10   1  11   17.18   17.90
  10  -1 -11   36.43   18.38
 -10  -1  11   -0.73    8.51
  10   1 -11   11.35    7.91
   9   1 -11    4.38    9.26
  -9  -1  11   10.90    9.75
  -8  -1  11   18.45   15.68
   8   1 -11  -10.33   13.60
   1   1  11  -56.93   32.23
  -2  -1 -11    8.08   22.36
   2   1  11  -50.47   22.51
  -3  -1 -11  -10.65   17.65
   3   1  11   18.41   18.58
   4   1  11  -13.70   13.96
  -4  -1 -11    4.10   14.11
  -5  -1 -11   -6.76   11.95
   5   1  11  -22.30   12.43
   6  -1  11   34.04   24.36
  -6   1 -11   31.19   26.12
  -6  -1 -11   13.70   10.98
   6   1  11    7.99   11.00
  -7   1 -11  -22.57   20.29
   7  -1  11    2.25   18.54
  -7  -1 -11   -8.29    9.05
   7   1  11   -8.75    9.28
   8   1  11   -6.60    8.23
  -8  -1 -11   20.92    8.56
  -8   1 -11   -9.53   15.77
   8  -1  11   16.33   14.65
  -9   1 -11   34.25   13.42
   9  -1  11   -8.30   11.89
   9   1  11   31.29    7.71
 -10   1 -11   18.39   11.47
  10  -1  11   -5.38    9.95
 -10  -1 -11    8.28    6.92
  10   1  11   10.69    6.55
  11   1  11   22.20    5.85
 -11   1 -11   27.72    9.96
  11  -1  11   15.93    8.36
 -11  -1 -11   24.64    6.57
  12   1  11    0.17    4.75
 -12  -1 -11    2.03    5.78
 -12   1 -11    3.91    8.05
  12  -1  11    9.29    7.06
 -13  -1 -11   -8.19    4.92
  13  -1  11   -6.33    5.86
 -13   1 -11    1.73    7.38
  13   1  11   -0.33    4.20
  14   1  11    3.09    3.94
 -14  -1 -11   12.24    5.00
 -14   1 -11   15.51    6.88
  14  -1  11    9.05    5.50
  15   1  11   -4.50    3.32
 -15  -1 -11    7.42    4.76
 -15   1 -11   17.51    6.43
  15  -1  11    8.78    4.66
 -22   2  11    0.58    6.55
  22  -2 -11    2.70    4.44
 -22  -2  11   17.95    7.51
  22   2 -11    5.05    5.37
  21  -2 -11    3.73    4.42
  21   2 -11   -2.21    5.27
 -21   2  11    7.18    5.75
 -21  -2  11   -2.14    6.85
  20   2 -11    8.10    5.07
 -20  -2  11   30.09    7.36
 -20   2  11   11.61    6.57
  20  -2 -11   14.65    4.77
 -19   2  11    4.94    5.66
  19   2 -11   12.72    5.16
  19  -2 -11   -0.32    4.85
 -19  -2  11   15.96    6.76
 -18   2  11   13.23    5.87
  18  -2 -11   12.48    4.64
 -18  -2  11   21.93    7.06
  18   2 -11    6.45    5.12
  17  -2 -11    3.88    4.54
 -17  -2  11   10.42    6.77
  17   2 -11   12.28    5.40
 -17   2  11   -7.32    5.53
  16   2 -11    2.57    5.25
 -16  -2  11    5.57    6.38
  16  -2 -11   -1.83    4.89
 -16   2  11    2.35    5.65
 -15  -2  11   -7.43    6.58
  15   2 -11    9.85    5.64
  15  -2 -11   17.64    5.63
  14   2 -11   35.09    6.64
 -14  -2  11   68.10    7.12
 -14   2  11   53.16    8.93
  14  -2 -11   75.06    7.83
  13   2 -11   13.32    5.60
  13  -2 -11   22.68    8.50
 -13   2  11    7.37    9.52
 -12   2  11  -34.75   13.38
  12  -2 -11  -14.00   11.51
  11   2 -11    6.48    5.34
  11  -2 -11   36.90   18.41
 -11  -2  11   34.78    6.01
  10   2 -11    7.26    5.62
 -10  -2  11   -1.86    6.35
  -9  -2  11   21.26    7.76
   9   2 -11    9.77    7.37
   8   2 -11   -3.88    7.93
  -8  -2  11   22.18    9.09
  -7  -2  11   -1.00   12.46
   7   2 -11  -10.98   12.74
   6   2 -11   81.17   20.73
   1  -2 -11   32.80   28.58
  -1   2  11  -25.86   30.01
   0   2  11  -11.37   21.65
   0  -2 -11  -13.78   20.51
  -1  -2 -11   27.54   16.05
   1   2  11    7.58   17.08
  -2  -2 -11  -15.72   13.01
   2   2  11  -16.56   13.66
  -3  -2 -11    0.84   11.76
   3   2  11   20.91   12.54
  -4  -2 -11    1.75   10.32
   4   2  11   -1.91   10.30
  -5  -2 -11  -17.41    8.77
   5   2  11   12.19    9.33
   6   2  11   16.33    8.65
  -6  -2 -11    9.78    8.43
  -7  -2 -11   17.71    7.64
   7   2  11    2.64    7.62
   8  -2  11   -0.58   22.51
  -8   2 -11   11.82   26.15
   8   2  11    7.04    6.56
  -8  -2 -11   -7.11    6.81
  -9   2 -11  -40.77   19.64
   9  -2  11  -14.01   16.99
 -10   2 -11    8.65   16.30
  10   2  11    6.97    5.35
 -10  -2 -11   25.28    6.15
  10  -2  11    8.93   13.69
  11   2  11   10.80    5.00
  11  -2  11   23.15   10.75
 -11  -2 -11   19.77    5.62
 -11   2 -11   41.91   13.66
  12   2  11    6.56    4.34
 -12   2 -11   11.95   11.03
  12  -2  11  -12.98    8.82
 -12  -2 -11   -0.95    5.11
  13   2  11    3.90    3.82
 -13  -2 -11   -1.09    4.71
 -13   2 -11    3.88    9.47
  13  -2  11   -0.26    7.05
 -14   2 -11   -6.10    7.85
  14  -2  11   -8.61    5.95
 -15  -2 -11   -2.74    4.21
  15   2  11    0.51    3.33
  15  -2  11    2.87    5.42
 -15   2 -11    0.67    7.10
 -21  -3  11   22.04    7.82
 -21   3  11   -7.02    6.37
  21  -3 -11    3.24    4.20
  21   3 -11   -0.49    5.36
  20   3 -11   16.63    5.59
 -20  -3  11   27.48    7.49
 -20   3  11   21.06    5.96
  20  -3 -11   -7.31    4.56
 -19   3  11   -1.63    5.46
  19  -3 -11   -2.58    4.19
  19   3 -11    8.41    5.11
 -19  -3  11    5.80    6.86
  18  -3 -11    8.32    4.29
  18   3 -11    0.39    4.78
 -18   3  11    4.00    5.66
 -18  -3  11    2.24    6.50
 -17  -3  11    8.20    6.76
  17   3 -11   13.52    5.05
 -17   3  11   -3.43    5.57
  17  -3 -11    3.42    4.36
 -16  -3  11    1.44    6.70
  16   3 -11    1.48    5.62
  16  -3 -11    7.44    4.95
 -16   3  11    1.65    6.45
  15   3 -11    7.89    5.59
 -15  -3  11   26.93    6.98
 -15   3  11    8.63    8.62
  15  -3 -11    9.93    6.90
  14   3 -11    6.35    5.36
  14  -3 -11   16.07    8.19
 -14   3  11   17.06   10.27
 -13  -3  11   34.67    6.73
  13   3 -11   27.45    6.22
 -13   3  11   36.06   16.30
  13  -3 -11  -12.60   12.41
 -12  -3  11   13.52    6.05
  12   3 -11    5.07    5.18
 -11  -3  11   32.87    5.93
  11   3 -11    6.98    5.22
  10   3 -11   28.43    5.73
 -10  -3  11   44.23    6.19
   9   3 -11    3.13    5.42
  -9  -3  11   -5.70    5.82
   8   3 -11   49.02    7.44
  -8  -3  11   49.58    7.66
  -7  -3  11   12.16    8.18
   7   3 -11  -16.07    7.53
  -6  -3  11   15.41   12.09
   6   3 -11   55.10   12.41
   5   3 -11   62.27   21.02
   3  -3 -11   -7.09   25.78
  -3   3  11   25.00   28.73
  -2   3  11  -12.37   19.96
   2  -3 -11   23.35   19.08
   1  -3 -11   -5.53   14.54
  -1   3  11   -5.34   15.95
   0  -3 -11    1.52   12.34
   0   3  11  -10.70   13.30
  -1  -3 -11    2.15   11.06
   1   3  11  -30.91   11.46
  -2  -3 -11   16.14   10.10
   2   3  11   -3.14    9.83
  -3  -3 -11  -13.92    8.58
   3   3  11   26.07    9.70
  -4  -3 -11   54.24    9.23
   4   3  11   56.26    9.20
  -5  -3 -11    8.63    7.46
   5   3  11  -14.86    7.60
   6   3  11   15.22    6.60
  -6  -3 -11   28.22    7.19
  -7  -3 -11    5.24    6.07
   7   3  11   11.37    6.05
  -8  -3 -11   -3.63    5.18
   8   3  11   -4.32    5.14
  -9  -3 -11   34.72    5.58
   9   3  11    4.97    4.92
  10  -3  11   22.16   19.43
  10   3  11    6.32    4.50
 -10  -3 -11    2.79    5.19
  11  -3  11    0.48   14.87
 -11   3 -11   32.13   19.36
  11   3  11   19.01    4.74
 -11  -3 -11   31.79    5.30
  12  -3  11   22.89   11.99
 -12   3 -11   -8.77   15.08
 -12  -3 -11   -1.97    4.55
  12   3  11    7.96    4.34
 -13  -3 -11   -7.87    4.53
  13   3  11   -2.85    3.69
  13  -3  11  -16.38    8.64
 -13   3 -11   18.62   12.95
 -14  -3 -11    6.57    4.85
  14   3  11    4.90    3.53
 -14   3 -11   18.36   10.87
  14  -3  11   21.73    8.24
 -20   4  11   11.41    5.41
  20  -4 -11   -5.26    3.98
 -20  -4  11   -1.86    7.09
  20   4 -11   -5.40    5.29
  19  -4 -11    0.90    4.03
 -19  -4  11    0.84    6.70
  19   4 -11   -3.48    5.13
 -19   4  11    5.79    5.32
 -18  -4  11   14.46    6.73
  18   4 -11    4.73    5.40
  18  -4 -11    2.00    4.13
 -18   4  11    0.46    5.60
 -17  -4  11    5.86    6.67
  17   4 -11    4.97    5.14
  17  -4 -11    4.05    4.90
 -17   4  11    2.83    6.57
  16   4 -11    3.59    5.26
 -16  -4  11   18.43    6.83
 -16   4  11   -2.62    7.37
  16  -4 -11   10.39    6.40
 -15  -4  11   -2.33    6.82
  15   4 -11    1.46    5.17
 -15   4  11   -2.40   10.63
  15  -4 -11   -6.03    7.77
 -14  -4  11   15.88    6.65
  14   4 -11   16.06    5.79
 -14   4  11   25.09   17.69
  14  -4 -11   17.75   12.97
 -13  -4  11   17.10    6.80
  13   4 -11    1.82    5.49
 -12  -4  11   53.08    7.53
  12   4 -11   48.85    6.44
 -11  -4  11   24.54    5.97
  11   4 -11   18.12    5.48
 -10  -4  11   16.91    5.54
  10   4 -11    9.95    5.29
   9   4 -11    0.80    5.09
  -9  -4  11   15.60    5.63
  -8  -4  11   11.98    5.52
   8   4 -11   -3.51    5.11
   7   4 -11   45.18    7.25
  -7  -4  11   60.92    7.44
  -6  -4  11   41.50    8.08
   6   4 -11   51.06    9.17
  -5  -4  11    2.43   11.38
   5   4 -11   18.64   10.82
  -5   4  11    9.58   27.76
   5  -4 -11   -5.01   24.29
  -4  -4  11   51.55   17.38
   4   4 -11   23.65   18.67
  -4   4  11  -21.31   19.81
   3  -4 -11   56.23   14.15
  -3   4  11    9.94   15.37
   2  -4 -11    7.17   11.13
  -2   4  11   -1.40   12.61
  -1   4  11    0.74   11.19
   0  -4 -11   30.20    9.40
   0   4  11   10.51    9.74
   1   4  11   28.20    9.16
  -1  -4 -11   -6.19    7.94
  -2  -4 -11   -1.32    7.57
   2   4  11   32.53    8.38
  -3  -4 -11   -1.95    6.87
   3   4  11    9.60    7.14
   4   4  11   13.83    6.52
  -4  -4 -11   -5.35    6.29
   5   4  11   27.53    6.20
  -5  -4 -11    8.69    5.75
  -6  -4 -11   10.64    5.38
   6   4  11   14.49    5.50
  -7  -4 -11    5.33    5.20
   7   4  11   32.60    5.33
   8   4  11   -2.31    4.36
  -8  -4 -11   16.75    5.15
  -9  -4 -11  -10.09    4.24
   9   4  11    7.48    4.64
 -10  -4 -11    6.84    4.57
  10   4  11    6.01    4.11
 -11  -4 -11    7.54    4.65
  11   4  11   -1.14    3.91
 -12  -4 -11    1.65    4.55
  12   4  11   -4.40    3.51
  12  -4  11   14.76   16.55
 -13  -4 -11   -4.16    4.14
  13   4  11    5.96    3.46
 -13   4 -11   10.80   18.58
  13  -4  11    2.48   12.90
  18  -5 -11    2.77    4.77
 -18  -5  11   -6.02    6.66
  18   5 -11    8.26    5.56
 -17  -5  11   11.38    6.57
  17   5 -11   11.43    5.33
  17  -5 -11   12.51    6.23
 -17   5  11    6.92    8.01
 -16  -5  11   19.67    6.50
  16   5 -11    5.73    5.31
 -16   5  11   16.15   11.75
  16  -5 -11   17.28    7.92
  15   5 -11    1.95    5.24
 -15  -5  11    1.42    6.25
  15  -5 -11  -10.39   12.79
 -14  -5  11    5.20    6.78
  14   5 -11   10.60    5.19
 -13  -5  11    1.34    6.42
  13   5 -11   11.40    5.58
  12   5 -11   30.13    5.89
 -12  -5  11   57.83    6.76
 -11  -5  11   19.28    6.63
  11   5 -11    5.25    5.60
 -10  -5  11    5.10    5.43
  10   5 -11    3.40    5.59
  -9  -5  11    9.99    5.24
   9   5 -11    4.01    4.91
   8   5 -11    3.27    5.01
  -8  -5  11   10.97    5.47
  -7  -5  11   17.53    5.47
   7   5 -11   13.63    5.34
  -7   5  11   -6.30   23.58
   7  -5 -11   53.40   20.94
   6   5 -11    2.03    6.10
  -6  -5  11    4.85    6.13
  -6   5  11   14.75   17.41
   6  -5 -11   -6.92   15.39
  -5  -5  11   13.70    6.83
   5   5 -11   -2.24    7.19
  -5   5  11   10.02   14.10
   5  -5 -11   18.53   12.39
  -4  -5  11   26.51    9.37
   4   5 -11    2.54    9.41
   4  -5 -11   17.77   10.69
  -4   5  11   17.32   12.10
  -3  -5  11   -4.16   15.82
   3   5 -11   -5.80   14.76
   3  -5 -11   -9.62    9.03
  -3   5  11   15.85   10.36
   2  -5 -11   12.90    7.89
  -2   5  11   31.93    9.21
  -1   5  11   -0.75    8.23
   1  -5 -11    5.61    7.39
   0  -5 -11   -5.79    6.66
   0   5  11   -0.35    7.49
  -1  -5 -11   25.37    6.52
   1   5  11   -5.15    6.38
  -2  -5 -11    1.93    5.43
   2   5  11   21.50    6.03
  -3  -5 -11   -8.91    4.93
   3   5  11   15.67    5.35
   4   5  11    4.27    5.15
  -4  -5 -11   -5.00    4.74
  -5  -5 -11    7.19    5.01
   5   5  11    4.11    4.85
   6   5  11   23.80    4.95
  -6  -5 -11   23.09    4.95
  -7  -5 -11   -6.00    4.22
   7   5  11    2.35    4.40
  -8  -5 -11    0.48    4.42
   8   5  11   20.09    4.47
  -9  -5 -11   11.95    4.57
   9   5  11   10.38    4.19
 -10  -5 -11   11.71    4.49
  10   5  11    4.07    3.73
 -11  -5 -11    6.49    4.25
  11   5  11    5.39    3.59
  16   6 -11    0.46    4.90
 -16  -6  11    3.59    6.26
  16  -6 -11   22.07   14.30
  15   6 -11    0.42    4.84
 -15  -6  11    0.57    6.15
  14   6 -11   10.46    5.09
 -14  -6  11    9.10    6.00
 -13  -6  11   22.80    6.65
  13   6 -11   11.79    4.97
 -12  -6  11   13.85    6.22
  12   6 -11   -3.57    5.25
  11   6 -11   12.59    5.55
 -11  -6  11   15.71    5.73
 -10  -6  11    7.15    5.93
  10   6 -11    5.31    5.04
  -9   6  11  -24.12   18.47
   9  -6 -11   24.26   16.68
  -9  -6  11   16.52    5.35
   9   6 -11   -1.52    5.23
   8  -6 -11  -10.55   12.19
  -8   6  11    6.48   14.48
  -8  -6  11  -10.06    4.99
   8   6 -11   -7.80    4.77
  -7   6  11    5.81   11.53
   7  -6 -11   18.79    9.93
   7   6 -11    5.60    4.87
  -7  -6  11   11.77    5.00
   6  -6 -11  -18.76    7.95
  -6   6  11   -5.11    9.75
   6   6 -11    2.64    5.03
  -5  -6  11    0.41    5.45
   5   6 -11    3.58    5.30
   5  -6 -11   20.79    7.79
  -5   6  11   11.53    8.59
  -4  -6  11   -8.31    6.37
   4   6 -11   -2.64    6.65
   4  -6 -11  -14.28    6.31
  -4   6  11    5.25    7.89
   3   6 -11    1.56    7.84
  -3  -6  11   15.35    8.30
  -3   6  11   23.38    7.26
   3  -6 -11   -2.46    5.90
  -2  -6  11   -4.32   13.72
   2   6 -11   11.27   12.28
   2  -6 -11    9.48    5.83
  -2   6  11    0.16    6.40
  -1   6  11    5.15    5.60
   1  -6 -11    2.01    5.25
   0  -6 -11    7.42    4.81
   0   6  11   -1.60    5.17
  -1  -6 -11   -2.69    4.32
   1   6  11   -7.95    4.73
   2   6  11    2.24    4.83
  -2  -6 -11   -8.16    4.15
   3   6  11   -4.49    4.33
  -3  -6 -11   -1.02    4.33
  -4  -6 -11    6.04    4.19
   4   6  11   14.83    4.87
  -5  -6 -11   -2.70    4.05
   5   6  11    1.99    4.39
  -6  -6 -11   -1.27    4.03
   6   6  11    9.70    4.17
  -7  -6 -11    5.89    4.07
   7   6  11    7.94    4.00
  -8  -6 -11    6.27    4.06
   8   6  11    3.17    3.70
  -9  -6 -11    7.14    4.01
   9   6  11    9.29    3.77
  13   7 -11    5.25    4.82
 -13  -7  11  -10.51    5.42
 -12  -7  11    2.30    5.89
  12   7 -11    7.40    5.15
 -11   7  11   -6.72   16.16
 -11  -7  11    5.88    5.80
  11   7 -11    2.60    5.01
 -10   7  11   -7.49   12.59
  10  -7 -11   -0.38    9.67
  10   7 -11    4.22    5.04
 -10  -7  11    8.13    5.47
  -9   7  11    0.52   10.26
   9  -7 -11    1.54    7.78
  -9  -7  11   -2.14    5.43
   9   7 -11   10.06    4.97
   8  -7 -11    4.41    6.83
  -8   7  11    5.15    8.64
  -8  -7  11    7.94    5.03
   8   7 -11    4.72    5.13
   7  -7 -11   20.32    6.55
  -7   7  11   21.74    7.63
  -7  -7  11   11.80    4.92
   7   7 -11    0.45    4.69
   6  -7 -11   18.27    5.69
  -6   7  11    8.57    6.92
   6   7 -11   -3.81    4.52
  -6  -7  11    2.08    4.64
  -5   7  11   -6.21    6.19
   5  -7 -11   12.95    5.43
   5   7 -11   -8.08    4.62
  -5  -7  11    4.34    4.53
  -4  -7  11  -10.51    4.85
   4   7 -11    2.28    4.70
   4  -7 -11   -2.73    4.80
  -4   7  11    7.79    5.49
  -3  -7  11    2.87    5.90
   3   7 -11    9.41    5.91
  -3   7  11   -0.29    4.93
   3  -7 -11    7.39    4.48
   2   7 -11   14.44    6.62
  -2  -7  11    3.22    7.03
   2  -7 -11    5.56    4.05
  -2   7  11    0.54    4.59
  -1  -7  11    7.61   11.53
   1   7 -11  -17.00    9.53
   1  -7 -11    1.59    3.92
  -1   7  11  -11.46    4.50
   0  -7 -11    2.75    4.06
   0   7 -11  -18.87   19.34
   1   7  11    8.97    4.71
  -1  -7 -11    9.47    4.16
  -2  -7 -11    4.15    3.67
   2   7  11   -4.72    4.32
  -3  -7 -11   12.53    4.12
   3   7  11   -5.05    3.88
  -4  -7 -11    4.21    3.93
   4   7  11    7.00    4.03
  -5  -7 -11   -5.82    3.61
   5   7  11    2.21    3.78
  -6  -7 -11   -2.98    3.52
   6   7  11   -0.45    3.69
   6  -8 -11    3.83    4.13
  -6   8  11    8.49    4.85
  -6  -8  11    0.90    4.33
   6   8 -11    9.59    4.94
  -5   8  11   -5.97    4.27
   5  -8 -11   -2.48    3.54
   5   8 -11    4.69    4.50
  -5  -8  11   -3.75    4.20
   4  -8 -11    8.98    3.72
  -4   8  11    3.45    4.16
   4   8 -11   13.53    4.66
  -4  -8  11    5.30    4.30
   3  -8 -11   -4.77    3.27
  -3  -8  11   -3.88    4.52
   3   8 -11   -5.17    4.30
  -2   8  11    4.96    4.19
   2   8 -11  -13.41    5.03
  -2  -8  11    7.06    5.26
  -1   8  11   -1.27    4.36
   1  -8 -11    0.55    3.36
   1   8 -11   -1.11    6.61
  -1  -8  11  -16.53    5.70
 -22   0  12    8.92    6.70
  22   0 -12   -2.70    4.34
 -21   0  12    7.67    6.68
  21   0 -12    4.86    5.02
  20   0 -12   -1.29    4.80
 -20   0  12    1.83    6.36
 -19   0  12    7.58    6.80
  19   0 -12    4.45    4.86
 -18   0  12    3.54    5.88
  18   0 -12    9.18    5.50
 -17   0  12    7.11    5.99
  17   0 -12   -8.15    4.75
 -16   0  12   24.15    6.18
  16   0 -12    9.15    5.11
  15   0 -12   11.50    5.41
 -15   0  12    4.40    5.96
  14   0 -12    1.37    5.36
 -14   0  12   11.79    6.43
  13   0 -12   17.69    7.17
 -13   0  12   19.81    8.09
 -12   0  12  117.40   10.18
  12   0 -12  172.00   11.12
 -11   0  12   75.60   12.42
  11   0 -12  152.24   12.63
 -10   0  12   70.76   18.67
  10   0 -12   65.72   16.71
   4   0  12   20.31   26.61
  -4   0 -12    3.86   27.14
   5   0  12   12.72   21.10
  -5   0 -12  -28.27   21.98
  -6   0 -12   18.65   18.50
   6   0  12  -10.57   16.87
  -7   0 -12   -2.59   14.28
   7   0  12   -6.40   13.28
  -8   0 -12   -5.51   11.74
   8   0  12   -1.61   11.28
  -9   0 -12    7.08   10.48
   9   0  12  -10.22    9.54
 -10   0 -12   11.97    9.12
  10   0  12    3.27    8.19
  11   0  12   14.85    7.25
 -11   0 -12   10.90    8.08
 -12   0 -12   -7.78    7.27
  12   0  12   11.79    6.66
 -13   0 -12    6.00    6.90
  13   0  12    7.25    5.51
  14   0  12    8.29    4.94
 -14   0 -12   -4.75    5.91
  22  -1 -12    3.84    4.59
  22   1 -12    8.50    4.72
 -22  -1  12   -2.31    6.44
 -22   1  12    3.73    6.27
 -21  -1  12   -9.95    6.62
 -21   1  12  -10.74    6.18
  21   1 -12    2.71    4.68
  21  -1 -12   -2.65    4.37
 -20  -1  12    0.80    6.72
  20   1 -12   -1.59    5.03
 -20   1  12   16.03    7.10
  20  -1 -12   -3.79    4.75
  19   1 -12    2.81    4.97
 -19   1  12   10.88    6.06
  19  -1 -12   20.55    5.42
 -19  -1  12   11.92    6.57
 -18   1  12   -4.68    5.64
  18  -1 -12    6.46    4.74
 -18  -1  12   -2.41    6.78
  18   1 -12    4.27    4.85
  17  -1 -12   11.45    4.76
 -17  -1  12    6.35    6.28
  17   1 -12   11.15    5.50
 -17   1  12   -4.42    5.69
 -16  -1  12    0.47    6.08
  16   1 -12    2.72    5.01
  16  -1 -12    6.45    5.07
 -16   1  12    3.24    5.83
 -15  -1  12   24.18    6.16
  15   1 -12   29.48    5.61
  15  -1 -12   38.39    5.86
 -15   1  12   31.07    7.26
  14   1 -12    8.69    5.67
 -14  -1  12    6.15    6.52
  14  -1 -12    6.26    6.98
 -14   1  12   14.59    8.30
  13   1 -12   50.75    6.50
 -13   1  12   24.77    9.35
  13  -1 -12   37.78    8.55
 -13  -1  12   95.96    7.65
 -12   1  12   55.13   13.73
  12  -1 -12  139.52   12.96
 -12  -1  12   73.50    8.39
  12   1 -12   59.39    7.57
 -11   1  12   18.59   18.60
  11  -1 -12   24.36   17.92
  11   1 -12    4.80    8.22
  10   1 -12   16.72    9.24
 -10  -1  12    7.57   10.16
  -9  -1  12    8.62   14.33
   9   1 -12    1.35   13.90
   8   1 -12   50.06   20.64
  -2  -1 -12   -3.63   25.56
   2   1  12  -12.07   26.43
  -3  -1 -12  -10.21   20.19
   3   1  12   40.80   21.21
  -4  -1 -12   13.22   16.48
   4   1  12   45.62   17.49
  -5  -1 -12   17.42   13.88
   5   1  12   16.51   14.28
   6  -1  12   47.00   27.12
  -6   1 -12   21.35   28.76
  -6  -1 -12  -23.63   11.89
   6   1  12    3.39   12.05
   7  -1  12   41.32   21.05
  -7   1 -12  -39.79   21.13
  -7  -1 -12   -3.09   10.46
   7   1  12    5.36   10.12
  -8   1 -12  -10.06   16.88
  -8  -1 -12    4.70    8.87
   8   1  12   27.04    8.77
   8  -1  12   13.63   16.39
   9  -1  12   -4.46   12.55
   9   1  12    0.46    7.41
  -9  -1 -12    1.60    7.96
  -9   1 -12   -0.39   13.71
 -10  -1 -12    7.49    7.43
 -10   1 -12  -16.82   11.04
  10  -1  12   14.39   10.86
 -11   1 -12   -1.55   10.49
 -11  -1 -12    5.37    7.02
  11  -1  12  -18.67    8.63
  12   1  12    4.21    5.11
 -12   1 -12   -9.47    8.79
  12  -1  12    0.78    7.25
 -12  -1 -12    3.95    6.15
  13   1  12   -1.84    4.38
  13  -1  12   -7.37    6.28
  14   1  12    3.20    3.89
  14  -1  12    0.92    5.55
 -14  -1 -12   -5.42    5.03
 -14   1 -12   10.10    7.55
  21   2 -12   -8.19    4.68
 -21   2  12    0.18    6.10
  21  -2 -12   -9.51    4.47
 -21  -2  12    7.42    6.86
 -20   2  12    9.90    5.94
  20  -2 -12    1.46    4.62
 -20  -2  12    5.88    7.00
  20   2 -12   -1.58    4.72
 -19   2  12   -3.94    5.25
 -19  -2  12    6.39    6.97
  19  -2 -12   -0.89    4.39
  19   2 -12   -4.02    5.14
  18  -2 -12    2.81    4.47
  18   2 -12    0.96    5.27
 -18   2  12   -5.53    5.70
 -18  -2  12   -2.20    6.30
 -17  -2  12   14.82    6.77
  17  -2 -12   14.83    4.83
  17   2 -12    7.60    5.15
 -17   2  12   -0.60    5.72
 -16  -2  12    8.45    6.71
  16   2 -12    5.32    5.50
 -16   2  12   15.16    6.80
  16  -2 -12    9.55    5.12
 -15  -2  12   11.12    6.09
  15   2 -12   14.49    5.52
 -15   2  12    2.24    8.30
  15  -2 -12    8.04    6.55
 -14  -2  12   -3.90    5.83
  14   2 -12   12.65    5.39
  14  -2 -12    0.75    7.88
 -14   2  12   18.27    9.78
  13   2 -12    0.72    5.39
 -13  -2  12   -9.26    6.08
 -13   2  12   -0.37   12.80
  13  -2 -12    5.98   10.67
 -12   2  12   45.90   19.31
  12   2 -12   26.20    6.02
  12  -2 -12   21.32   18.79
 -11  -2  12    3.15    6.83
  11   2 -12   -0.45    6.11
 -10  -2  12   -0.37    7.79
  10   2 -12   17.46    7.85
   9   2 -12   -1.41    8.58
  -9  -2  12   -6.03    8.74
  -8  -2  12   22.97   12.76
   8   2 -12   60.22   12.99
  -7  -2  12   27.55   17.88
   7   2 -12   22.50   20.51
  -1   2  12   -6.87   35.05
   0  -2 -12   -2.85   23.80
   0   2  12   64.84   26.20
   1   2  12  -27.15   19.46
  -1  -2 -12   12.00   18.61
  -2  -2 -12  -12.37   15.24
   2   2  12   -7.63   16.10
  -3  -2 -12  -23.88   12.43
   3   2  12   43.71   14.18
  -4  -2 -12   21.48   12.22
   4   2  12   13.81   12.62
  -5  -2 -12   16.48   10.74
   5   2  12   28.44   10.93
  -6  -2 -12    0.71    8.72
   6   2  12   10.23    9.05
   7   2  12    9.27    8.02
  -7  -2 -12    8.01    8.11
   8  -2  12  -22.62   24.31
   8   2  12    3.53    7.45
  -9   2 -12  -35.42   20.27
   9  -2  12  -21.93   17.89
  10  -2  12    9.98   14.22
 -10   2 -12   10.64   16.96
  10   2  12    3.13    5.25
 -10  -2 -12    6.08    5.90
  11  -2  12    8.52   11.41
  11   2  12    0.89    4.67
 -11  -2 -12   21.06    5.60
 -11   2 -12   11.54   13.58
 -12   2 -12   -3.55   11.74
 -12  -2 -12   -3.34    4.92
  12  -2  12  -14.51    8.86
  12   2  12    2.28    4.45
  13   2  12    8.34    4.11
 -13  -2 -12   -2.05    4.60
 -13   2 -12    2.92   10.08
  13  -2  12    4.64    7.94
  14   2  12   -2.01    3.37
 -14  -2 -12   10.90    4.69
 -14   2 -12    3.82    8.80
  14  -2  12    8.41    6.86
 -21   3  12    4.63    5.77
  21   3 -12    0.45    4.76
  21  -3 -12   -0.31    4.24
 -21  -3  12    7.23    7.02
 -20   3  12    6.16    5.58
  20  -3 -12    5.02    4.22
  20   3 -12   -1.06    4.57
 -20  -3  12  -13.73    6.36
  19  -3 -12   -1.40    4.38
  19   3 -12    9.28    4.95
 -19  -3  12   -2.42    6.57
 -19   3  12   15.50    5.83
 -18  -3  12    0.40    7.00
  18   3 -12   -1.78    4.98
  18  -3 -12   -0.14    4.30
 -18   3  12    5.73    5.91
 -17  -3  12    8.58    6.59
  17   3 -12    5.86    5.17
  17  -3 -12    1.88    5.06
 -17   3  12   -9.11    6.64
 -16  -3  12   14.97    6.46
  16   3 -12   -0.36    4.97
  16  -3 -12   -0.68    6.39
 -15  -3  12   23.88    7.29
  15   3 -12   12.25    5.59
  15  -3 -12   20.79    7.83
 -15   3  12   35.07   10.09
 -14  -3  12   22.27    6.10
  14   3 -12    6.61    5.53
 -14   3  12  -24.88   14.11
  14  -3 -12   37.05   12.02
 -13  -3  12   21.09    5.94
  13   3 -12    9.65    5.35
  13  -3 -12    7.77   18.87
  12   3 -12   14.17    5.43
 -12  -3  12   39.51    6.26
  11   3 -12    6.10    5.51
 -11  -3  12    5.15    5.82
  10   3 -12   22.74    5.91
 -10  -3  12   15.00    6.51
  -9  -3  12   11.71    7.39
   9   3 -12   13.07    7.00
  -8  -3  12    8.17    8.26
   8   3 -12    0.57    7.92
  -7  -3  12   34.82   12.32
   7   3 -12    7.17   11.13
  -6  -3  12   67.08   18.77
   6   3 -12   16.62   19.93
  -3   3  12  -47.37   33.48
   2  -3 -12   14.02   21.82
  -2   3  12  -38.32   23.41
  -1   3  12   30.79   19.52
   1  -3 -12   28.57   17.34
   0   3  12  -39.94   15.68
  -1  -3 -12   -1.26   13.39
   1   3  12   35.95   15.06
  -2  -3 -12    7.73   12.21
   2   3  12   40.52   12.71
  -3  -3 -12   -8.05    9.71
   3   3  12  -12.52   10.02
   4   3  12   19.99    8.91
  -5  -3 -12  -11.06    7.75
   5   3  12   11.94    8.16
  -6  -3 -12   16.59    7.25
   6   3  12    3.00    7.07
   7   3  12    1.11    6.14
  -8  -3 -12   16.47    6.03
   8   3  12   -1.96    5.51
   9   3  12    9.48    5.07
  -9  -3 -12    0.88    5.33
  10  -3  12   11.98   20.77
  10   3  12    3.79    4.69
 -10  -3 -12   20.01    5.54
 -11  -3 -12    8.44    5.17
  11  -3  12    2.82   16.09
 -11   3 -12  -13.06   20.38
  12  -3  12   -5.73   12.58
 -12   3 -12  -27.73   16.27
 -12  -3 -12   -3.87    4.69
  13  -3  12   19.62   10.37
 -13  -3 -12    8.60    4.50
  13   3  12    1.42    3.91
 -13   3 -12   42.56   14.50
 -19  -4  12    2.25    6.61
  19   4 -12    3.03    4.93
  19  -4 -12   -0.93    4.19
 -19   4  12   15.38    6.05
  18   4 -12   -3.54    4.94
 -18  -4  12   11.71    6.79
  18  -4 -12    5.70    5.18
 -18   4  12  -10.78    6.71
 -17  -4  12   -4.15    6.62
  17   4 -12   -4.54    4.80
 -17   4  12    0.44    7.81
  17  -4 -12    8.00    6.46
 -16  -4  12  -10.23    6.38
  16   4 -12    5.57    5.38
 -16   4  12    1.55   10.19
  16  -4 -12   10.41    7.88
  15   4 -12    4.98    5.42
 -15  -4  12   -6.60    6.05
 -15   4  12   -5.77   16.88
  15  -4 -12    5.18   11.88
 -14  -4  12   12.63    6.75
  14   4 -12   -5.08    5.16
 -13  -4  12   20.13    6.00
  13   4 -12   11.63    6.01
 -12  -4  12    0.59    5.90
  12   4 -12    6.04    5.19
 -11  -4  12   -9.47    5.26
  11   4 -12    6.91    5.13
  10   4 -12   -2.05    5.26
 -10  -4  12    0.95    5.49
  -9  -4  12   10.02    5.89
   9   4 -12   11.04    5.39
   8   4 -12   12.94    6.89
  -8  -4  12   16.60    6.98
  -7  -4  12    6.15    7.56
   7   4 -12   10.97    8.33
  -6  -4  12   -7.53   10.49
   6   4 -12   -5.97   10.39
  -5  -4  12   14.24   16.63
   5   4 -12   21.34   17.22
  -5   4  12  -54.57   29.26
   4  -4 -12   39.49   20.74
  -4   4  12   44.58   22.86
   3  -4 -12    2.94   16.40
  -3   4  12  -13.17   17.06
  -2   4  12   19.62   14.85
   2  -4 -12    5.99   12.87
   1  -4 -12   -0.61   11.48
  -1   4  12    3.84   12.98
   0  -4 -12    5.76   10.52
   0   4  12    4.13   11.08
  -1  -4 -12    6.94    8.84
   1   4  12    5.01    9.67
   2   4  12   29.23    8.91
  -2  -4 -12   12.83    8.00
  -3  -4 -12   19.70    7.56
   3   4  12   -5.01    7.72
  -4  -4 -12   15.09    6.79
   4   4  12   -3.22    6.62
   5   4  12   11.00    6.19
  -5  -4 -12   -5.01    5.72
   6   4  12    3.07    5.53
  -6  -4 -12   10.34    5.47
  -7  -4 -12    8.35    5.23
   7   4  12    3.30    4.98
  -8  -4 -12    9.40    4.87
   8   4  12    2.83    4.69
  -9  -4 -12   10.37    4.99
   9   4  12   -0.64    4.27
  10   4  12    7.83    4.25
 -10  -4 -12    8.65    4.71
 -11  -4 -12    5.27    4.44
  11   4  12   11.11    4.20
 -12  -4 -12   -1.74    4.38
  12   4  12    2.50    3.75
  12  -4  12  -13.70   18.43
 -18  -5  12    9.12    6.71
  18   5 -12    9.14    5.13
  18  -5 -12    1.25    6.05
 -18   5  12    7.80    8.36
  17   5 -12   -5.73    4.55
 -17  -5  12   -5.08    6.21
  17  -5 -12    2.18    7.61
 -16  -5  12   -6.53    6.37
  16   5 -12    0.99    4.93
 -16   5  12   11.39   16.98
  16  -5 -12  -14.09   11.55
 -15  -5  12    1.67    6.40
  15   5 -12   -4.27    4.97
  14   5 -12   -4.23    5.06
 -14  -5  12   11.60    6.21
 -13  -5  12   13.44    6.64
  13   5 -12   -7.19    5.07
 -12  -5  12   -8.55    5.86
  12   5 -12    9.94    5.66
 -11  -5  12    1.17    5.60
  11   5 -12   12.62    4.98
 -10  -5  12   14.08    5.56
  10   5 -12    9.40    5.10
  -9  -5  12   12.94    5.25
   9   5 -12   -1.33    4.99
  -8  -5  12    7.21    5.30
   8   5 -12   -1.57    5.01
   7   5 -12    9.37    6.44
  -7  -5  12    6.81    6.45
  -7   5  12  -24.92   26.70
  -6  -5  12   13.91    6.80
   6   5 -12   27.81    8.00
  -6   5  12   -3.21   19.45
   6  -5 -12   11.28   17.79
   5   5 -12   22.90    9.37
  -5  -5  12   23.93    9.37
   5  -5 -12   19.35   13.94
  -5   5  12   34.32   16.54
  -4  -5  12  -20.82   14.61
   4   5 -12    7.10   14.54
  -4   5  12  -20.33   12.23
   4  -5 -12  -15.55   10.86
   3  -5 -12   14.40   10.15
  -3   5  12    3.89   11.48
   2  -5 -12   26.03    9.19
  -2   5  12   10.03    9.86
   1  -5 -12   15.57    7.77
  -1   5  12  -18.08    8.37
   0   5  12  -17.96    7.67
   0  -5 -12   -5.11    6.82
  -1  -5 -12    5.01    6.38
   1   5  12   -6.70    6.98
  -2  -5 -12   16.41    5.99
   2   5  12   -3.96    6.15
   3   5  12    3.73    5.51
  -3  -5 -12   -6.80    5.07
   4   5  12   -2.12    5.08
  -4  -5 -12    3.75    4.97
  -5  -5 -12   -6.90    4.65
   5   5  12    7.81    5.04
   6   5  12    0.64    4.61
  -6  -5 -12    1.63    4.69
   7   5  12    8.29    4.28
  -7  -5 -12    1.95    4.48
  -8  -5 -12    2.38    4.29
   8   5  12   -1.35    4.20
  -9  -5 -12   13.83    4.57
   9   5  12    3.32    4.09
 -10  -5 -12   16.59    4.64
  10   5  12    6.99    4.11
 -15  -6  12    7.07    6.30
  15   6 -12   -2.84    4.39
 -14  -6  12    5.78    6.32
  14   6 -12   -3.26    5.01
  13   6 -12    1.97    5.13
 -13  -6  12   21.01    6.23
 -12  -6  12   27.51    6.30
  12   6 -12   -1.27    4.79
 -11  -6  12   21.75    6.14
  11   6 -12   -2.91    5.15
 -10  -6  12   11.39    5.42
  10   6 -12    7.71    5.35
  -9   6  12    0.54   21.80
  -9  -6  12   -5.55    4.96
   9   6 -12    2.21    4.85
   8  -6 -12   26.40   14.20
  -8   6  12    6.34   16.88
   8   6 -12   -9.74    4.68
  -8  -6  12   -5.61    4.94
  -7  -6  12    5.65    5.02
   7   6 -12   -4.42    5.09
   7  -6 -12   20.21   11.12
  -7   6  12   12.05   13.71
   6   6 -12   -5.82    5.36
  -6  -6  12    5.47    5.70
  -6   6  12   21.43   11.56
   6  -6 -12   10.64    9.46
  -5  -6  12   -2.41    6.79
   5   6 -12    1.26    6.70
   5  -6 -12   12.22    8.37
  -5   6  12   32.65   10.20
   4   6 -12    1.45    8.09
  -4  -6  12    2.05    7.95
  -4   6  12  -19.01    8.10
  -3  -6  12    9.72   13.24
   3   6 -12   -8.34   11.61
  -3   6  12  -15.30    7.27
   3  -6 -12    2.44    6.45
   2   6 -12   36.09   21.31
  -2   6  12    7.29    6.95
   2  -6 -12    3.12    6.13
   1  -6 -12   -8.73    5.40
  -1   6  12   -0.37    6.48
   0  -6 -12    8.93    5.42
   0   6  12   13.36    5.93
  -1  -6 -12    9.49    4.84
   1   6  12   -5.86    5.04
  -2  -6 -12    6.15    4.49
   2   6  12    9.84    4.84
   3   6  12    3.32    4.78
  -3  -6 -12    2.07    4.37
   4   6  12   13.70    4.73
  -4  -6 -12    1.63    4.52
   5   6  12    8.66    4.54
  -5  -6 -12    7.11    4.36
  -6  -6 -12    8.90    4.15
   6   6  12    4.01    4.25
  -7  -6 -12    3.37    4.06
   7   6  12    3.05    3.96
  -8  -6 -12    5.23    4.25
   8   6  12   -1.88    3.82
  12   7 -12    1.42    4.98
 -12  -7  12    7.88    5.89
 -11   7  12   19.52   19.66
 -11  -7  12    7.14    5.75
  11   7 -12    9.41    5.05
  10  -7 -12  -25.05   10.50
 -10   7  12  -13.99   14.56
 -10  -7  12  -11.69    5.53
   9  -7 -12   18.81    9.28
  -9   7  12  -10.68   11.63
  -9  -7  12    5.87    4.91
   9   7 -12    8.10    5.13
  -8   7  12    9.05   10.26
   8  -7 -12   -4.98    7.32
  -8  -7  12    5.52    4.71
   8   7 -12  -10.66    4.56
   7  -7 -12   -7.45    6.53
  -7   7  12    5.22    8.53
   7   7 -12    0.30    4.64
  -7  -7  12   11.02    4.74
   6  -7 -12    9.03    6.08
  -6   7  12   12.04    7.63
   6   7 -12   -2.91    4.80
  -6  -7  12    4.35    4.67
   5   7 -12    8.01    4.98
  -5  -7  12    2.21    5.30
   5  -7 -12   -0.64    5.54
  -5   7  12   -9.49    7.06
  -4  -7  12   -7.85    5.64
   4   7 -12   -3.47    5.99
  -4   7  12    2.37    6.04
   4  -7 -12    9.17    5.33
   3   7 -12   -0.21    7.91
  -3  -7  12    7.57    7.20
   3  -7 -12    1.89    4.98
  -3   7  12    6.51    5.83
  -2  -7  12  -10.21   10.57
   2   7 -12    1.10    9.84
  -2   7  12  -11.87    4.79
   2  -7 -12    5.20    4.62
   1   7 -12   20.21   18.60
   1  -7 -12   -5.06    4.12
  -1   7  12    4.97    4.82
   0   7  12   -1.22    4.57
   0  -7 -12    2.92    4.18
   1   7  12    9.17    4.61
  -1  -7 -12   -0.63    4.11
   2   7  12    2.61    4.22
  -2  -7 -12   -4.13    3.99
   3   7  12   -0.32    4.27
  -3  -7 -12    5.86    3.94
  -4  -7 -12   -2.81    3.57
   4   7  12   -1.15    4.06
  22   0 -13    5.88    4.65
 -22   0  13    9.77    6.48
 -21   0  13   10.71    6.60
  21   0 -13    9.70    4.62
 -20   0  13   16.73    6.94
  20   0 -13    8.68    5.03
 -19   0  13   -0.35    5.84
  19   0 -13    3.37    4.94
 -18   0  13    6.59    5.87
  18   0 -13    4.39    4.80
  17   0 -13    5.21    4.77
 -17   0  13    3.88    5.72
  16   0 -13    7.48    5.12
 -16   0  13    0.47    5.71
  15   0 -13   -0.59    5.28
 -15   0  13    6.66    6.54
  14   0 -13    6.32    6.79
 -14   0  13   23.42    7.87
 -13   0  13   12.72    8.42
  13   0 -13   20.13    8.72
  12   0 -13   24.22   10.61
 -12   0  13   -5.16   11.06
 -11   0  13   17.44   17.48
  11   0 -13    2.58   15.06
  10   0 -13    5.42   19.85
   4   0  13   48.52   30.97
  -4   0 -13   44.04   30.32
   5   0  13   51.77   24.02
  -5   0 -13   77.74   25.77
   6   0  13  -31.05   18.43
  -6   0 -13  -52.08   18.82
   7   0  13   -9.27   14.49
  -7   0 -13   -6.06   15.37
  -8   0 -13   34.66   13.18
   8   0  13   10.42   12.53
  -9   0 -13   10.93   11.05
   9   0  13   15.79   10.48
 -10   0 -13   29.84    9.87
  10   0  13   12.75    8.66
 -11   0 -13   10.26    8.80
  11   0  13    9.93    7.54
  12   0  13   37.00    7.50
 -12   0 -13    4.60    8.00
 -13   0 -13    1.24    7.15
  13   0  13    8.68    5.84
  21   1 -13   -5.37    5.00
 -21   1  13   14.59    6.34
  21  -1 -13    1.69    4.68
 -21  -1  13   10.55    6.60
  20  -1 -13   10.93    4.71
 -20  -1  13   11.45    6.89
  20   1 -13    5.35    4.67
 -19   1  13    3.17    5.71
  19  -1 -13    3.88    4.43
 -19  -1  13   16.88    7.13
  19   1 -13   12.51    5.19
  18  -1 -13   12.74    4.78
 -18  -1  13    2.92    5.91
  18   1 -13   -0.76    5.20
 -18   1  13   16.52    6.02
  17   1 -13    1.48    4.92
  17  -1 -13    5.72    5.04
 -17   1  13    7.97    5.90
 -16  -1  13    2.24    5.88
  16   1 -13   15.69    5.09
  16  -1 -13   13.31    5.45
 -16   1  13   14.78    6.77
  15   1 -13   -4.17    5.23
  15  -1 -13   -9.66    6.66
 -15  -1  13    2.50    6.14
 -15   1  13    5.06    8.21
  14   1 -13   44.15    6.27
 -14  -1  13   35.16    7.13
  14  -1 -13   40.08    9.12
  13   1 -13    8.34    6.89
 -13   1  13  -10.26   11.52
  13  -1 -13   -0.51   10.45
 -13  -1  13    2.17    7.55
 -12   1  13   80.26   20.00
  12  -1 -13  150.04   17.98
  11   1 -13   33.63   10.36
 -11  -1  13   30.73   10.86
 -10  -1  13    2.80   14.34
  10   1 -13    6.38   14.09
  -9  -1  13   20.09   19.03
   9   1 -13   98.00   22.16
   2   1  13   64.11   30.85
  -2  -1 -13  -42.12   27.81
   3   1  13   35.32   24.18
  -3  -1 -13   -9.71   21.92
  -4  -1 -13    7.71   18.62
   4   1  13   42.84   19.81
   5   1  13   -4.04   15.69
  -5  -1 -13   -7.85   15.23
   6  -1  13   13.19   29.33
  -6  -1 -13   25.28   13.06
  -7   1 -13   -8.30   23.12
   7  -1  13   32.74   22.38
  -7  -1 -13    8.54   11.34
   7   1  13    6.12   11.23
   8  -1  13  -21.80   16.05
  -8   1 -13   28.21   19.27
  -8  -1 -13   -3.57    9.47
   8   1  13    0.28    9.05
  -9   1 -13   12.94   15.66
  -9  -1 -13   20.39    8.64
   9   1  13  -17.62    7.66
   9  -1  13   25.09   13.86
 -10   1 -13   -0.79   12.40
  10   1  13    4.74    7.32
  10  -1  13    8.46   11.31
 -11  -1 -13   11.72    7.51
 -11   1 -13   21.69   10.91
  11  -1  13   22.33    9.73
  11   1  13   16.08    6.44
 -12   1 -13   -1.63    9.47
 -12  -1 -13    3.83    6.66
  12  -1  13   -9.26    7.62
  12   1  13   14.65    5.89
  13   1  13   -2.71    4.44
 -13   1 -13   -1.77    8.20
  13  -1  13  -12.52    6.66
 -21   2  13   14.72    5.93
 -21  -2  13    0.22    6.73
  21  -2 -13   -1.77    4.08
  21   2 -13   -1.48    4.62
 -20  -2  13   12.96    6.67
 -20   2  13    7.21    5.67
  20  -2 -13   -1.43    4.26
  20   2 -13   -2.95    4.96
  19  -2 -13   -2.43    4.39
  19   2 -13    6.81    4.88
 -19  -2  13   -0.19    6.30
 -19   2  13   14.58    5.83
 -18  -2  13   12.51    6.95
  18   2 -13   -2.62    4.77
 -18   2  13   -0.67    5.73
  18  -2 -13    6.71    4.67
 -17  -2  13   -4.87    5.62
  17   2 -13    6.11    5.61
 -17   2  13   -2.83    6.75
  17  -2 -13    9.43    5.25
 -16  -2  13    7.00    6.14
  16   2 -13   -0.33    4.76
 -16   2  13   17.01    8.40
  16  -2 -13   -9.02    6.55
 -15  -2  13   -1.89    5.90
  15   2 -13    2.07    5.07
  15  -2 -13   15.63    7.79
 -15   2  13   12.40    9.20
  14   2 -13   -2.64    5.16
 -14  -2  13    3.69    5.99
 -14   2  13  -10.07   12.52
  14  -2 -13    5.77   10.60
 -13   2  13  -20.73   18.36
  13  -2 -13  -12.15   17.22
 -12  -2  13   26.09    7.25
  12   2 -13    9.60    6.32
 -11  -2  13   15.81    8.35
  11   2 -13   27.79    7.88
 -10  -2  13   17.21    9.66
  10   2 -13    2.77    8.63
  -9  -2  13  -17.46   12.51
   9   2 -13   30.51   11.76
  -8  -2  13  130.13   19.92
   8   2 -13   73.11   20.54
   0   2  13  -64.71   27.42
   0  -2 -13  -34.37   26.65
   1   2  13    9.21   22.27
  -1  -2 -13   39.06   22.09
  -2  -2 -13    1.84   17.67
   2   2  13   -3.15   18.41
  -3  -2 -13  -26.80   14.97
   3   2  13   46.97   16.14
  -4  -2 -13    6.55   12.69
   4   2  13   18.57   13.80
  -5  -2 -13   24.21   11.30
   5   2  13  -13.53   11.54
  -6  -2 -13   17.79    9.63
   6   2  13   13.49    9.65
  -7  -2 -13   20.84    8.32
   7   2  13    7.57    8.48
   8  -2  13  -41.63   24.15
  -8  -2 -13    5.79    7.57
   9  -2  13   12.11   19.03
  -9   2 -13  -10.87   22.00
  -9  -2 -13   -7.09    6.76
   9   2  13   17.39    6.60
 -10   2 -13  -10.68   17.67
 -10  -2 -13   -7.00    6.00
  10   2  13    3.42    5.75
 -11   2 -13   -9.21   14.73
  11   2  13    0.81    5.02
 -11  -2 -13    7.91    5.84
  11  -2  13   12.30   12.13
  12   2  13   -3.52    4.49
  12  -2  13   -0.40    9.75
 -12  -2 -13   -2.18    5.44
 -12   2 -13  -15.56   12.72
 -13   2 -13  -14.09   10.45
  13  -2  13  -11.90    8.49
 -20  -3  13   -2.61    6.91
  20   3 -13   -3.62    4.68
  20  -3 -13   -7.50    4.13
 -20   3  13   -5.92    5.71
 -19  -3  13   -6.80    6.75
  19   3 -13   -0.86    4.97
  19  -3 -13    1.32    4.59
 -19   3  13   10.03    6.26
  18   3 -13    7.90    5.10
 -18  -3  13    8.30    6.46
  18  -3 -13   17.42    5.37
 -18   3  13    7.62    6.99
 -17  -3  13    3.67    6.62
  17   3 -13   -0.56    5.00
 -17   3  13   -2.99    7.38
  17  -3 -13    7.40    6.57
 -16  -3  13    4.19    6.15
  16   3 -13    4.84    5.33
  16  -3 -13   -0.62    7.51
 -16   3  13   -4.06    9.80
 -15  -3  13   -6.73    5.82
  15   3 -13    0.85    4.89
 -15   3  13  -24.52   12.85
  15  -3 -13   -1.75   10.36
 -14  -3  13   16.29    5.97
  14   3 -13   11.93    5.30
  14  -3 -13   21.37   17.91
  13   3 -13    6.62    5.34
 -13  -3  13   -3.40    5.65
  12   3 -13    0.15    5.40
 -12  -3  13    4.26    5.71
  11   3 -13   -0.94    5.67
 -11  -3  13   12.96    6.79
 -10  -3  13   11.68    7.81
  10   3 -13    4.97    7.35
  -9  -3  13    1.55    8.42
   9   3 -13    4.94    7.98
  -8  -3  13    5.18   11.43
   8   3 -13  -25.30   10.51
  -7  -3  13    7.18   16.94
   7   3 -13   -9.21   16.41
  -2   3  13   55.71   27.52
   2  -3 -13  -44.08   24.09
   1  -3 -13    2.59   19.78
   0  -3 -13   -7.93   16.35
   0   3  13   23.09   19.03
  -1  -3 -13   -6.73   13.77
   1   3  13  -29.65   15.10
  -2  -3 -13  -25.94   11.36
   2   3  13   -8.20   13.08
  -3  -3 -13   20.31   10.51
   3   3  13  -12.46   10.68
  -4  -3 -13  -16.62    8.45
   4   3  13    6.46    9.39
   5   3  13   -2.69    8.35
  -5  -3 -13   -8.55    7.77
  -6  -3 -13   23.35    7.71
   6   3  13   -6.60    7.44
  -7  -3 -13   18.34    6.90
   7   3  13    0.22    6.77
   8   3  13   -4.51    5.61
  -8  -3 -13    4.90    6.07
   9   3  13   -0.39    5.05
  -9  -3 -13   -1.00    5.45
  10  -3  13   15.59   23.19
  10   3  13    4.50    4.66
 -10  -3 -13   -0.77    5.19
  11  -3  13   -0.65   17.23
 -11   3 -13   11.62   22.14
 -11  -3 -13   13.51    5.20
  11   3  13    6.52    4.55
 -12  -3 -13    1.09    4.79
  12   3  13   -0.18    4.06
 -12   3 -13   11.33   18.38
  12  -3  13   30.26   14.22
 -19  -4  13   19.58    6.96
  19   4 -13    0.21    4.89
  19  -4 -13   14.94    5.37
 -19   4  13    6.25    7.25
 -18  -4  13    8.82    6.85
  18   4 -13   10.93    5.37
 -18   4  13    7.37    7.79
  18  -4 -13    3.94    6.38
  17   4 -13   10.80    5.35
 -17  -4  13   10.20    6.32
  17  -4 -13   10.86    7.55
 -17   4  13    4.81   10.39
 -16  -4  13   14.45    6.61
  16   4 -13   -9.37    4.71
 -16   4  13    7.43   15.80
  16  -4 -13   -1.29   11.25
 -15  -4  13   17.90    6.65
  15   4 -13    2.92    5.37
  15  -4 -13   -6.16   17.86
 -14  -4  13   10.54    5.96
  14   4 -13    6.02    5.24
 -13  -4  13   -4.73    5.50
  13   4 -13    6.52    5.24
  12   4 -13   17.12    5.25
 -12  -4  13   -1.21    5.56
  11   4 -13   11.42    5.52
 -11  -4  13    6.38    5.63
  10   4 -13    2.64    5.47
 -10  -4  13    6.32    6.27
   9   4 -13   13.95    6.96
  -9  -4  13   -5.12    6.98
  -8  -4  13   13.15    7.61
   8   4 -13   -0.85    8.09
  -7  -4  13    3.44   10.09
   7   4 -13    9.50   10.40
  -6  -4  13   -3.81   15.47
   6   4 -13    1.94   14.42
   5   4 -13   23.97   21.95
  -4   4  13   -5.32   24.94
   4  -4 -13   49.29   22.79
   3  -4 -13   30.71   18.04
  -3   4  13  -20.72   19.31
   2  -4 -13  -36.44   13.83
  -2   4  13   28.58   16.99
   1  -4 -13   20.45   12.76
  -1   4  13   33.23   14.30
   0  -4 -13    3.53   10.65
   0   4  13   -4.35   12.06
  -1  -4 -13   24.40    9.66
   1   4  13   -5.16   10.14
  -2  -4 -13    2.31    8.23
   3   4  13   -4.72    8.16
  -3  -4 -13   -4.96    7.34
  -4  -4 -13   -7.54    6.80
   4   4  13   -1.75    7.32
  -5  -4 -13  -13.97    6.06
   5   4  13  -16.13    6.16
   6   4  13   -5.08    5.56
  -6  -4 -13   11.36    6.02
  -7  -4 -13    1.74    5.21
   7   4  13   -7.34    5.04
  -8  -4 -13   13.51    5.10
   8   4  13   12.61    4.84
   9   4  13   11.20    4.77
  -9  -4 -13   -1.45    4.65
  10   4  13    8.72    4.37
 -10  -4 -13   14.29    5.08
 -17  -5  13    6.39    6.45
  17   5 -13    7.22    5.33
 -17   5  13  -27.21   16.40
  17  -5 -13   18.72   11.89
  16   5 -13   -2.35    5.01
  16  -5 -13  -24.39   15.78
 -15  -5  13    5.80    6.46
  15   5 -13   -4.52    4.82
 -14  -5  13    5.23    6.79
  14   5 -13   10.72    5.35
 -13  -5  13   -1.92    5.76
  13   5 -13    7.84    5.58
 -12  -5  13   -1.51    5.49
  12   5 -13   -4.74    4.86
 -11  -5  13    8.61    5.40
  11   5 -13   -2.57    4.71
  10   5 -13   -9.12    4.91
 -10  -5  13    7.22    5.23
   9   5 -13    4.03    5.16
  -9  -5  13   -7.36    5.42
   8   5 -13    2.66    6.37
  -8  -5  13    5.07    6.34
  -7  -5  13   -4.77    6.61
   7   5 -13   18.18    7.72
  -7   5  13    7.16   29.05
   6   5 -13    5.52    9.21
  -6  -5  13   -5.44    8.83
   6  -5 -13   22.15   19.15
  -5  -5  13   -1.71   14.19
  -5   5  13  -29.79   17.54
   5  -5 -13  -26.67   14.26
   4   5 -13   19.25   22.03
  -4   5  13   -5.25   13.83
   4  -5 -13    1.60   12.31
   3  -5 -13   14.04   10.38
  -3   5  13   -4.92   12.33
   2  -5 -13   -4.04    9.00
  -2   5  13    0.29   10.63
   1  -5 -13  -13.14    7.92
  -1   5  13   19.44    9.23
   0  -5 -13   -5.67    7.16
   1   5  13   15.40    8.04
  -1  -5 -13    7.87    6.92
  -2  -5 -13   13.58    6.30
   2   5  13   -4.20    6.80
  -3  -5 -13    1.46    5.66
   3   5  13    3.56    6.32
   4   5  13   -0.37    5.49
  -4  -5 -13    5.17    5.40
   5   5  13   11.98    5.22
  -5  -5 -13   -5.64    4.85
   6   5  13   -0.35    4.66
  -6  -5 -13    4.21    4.70
   7   5  13    6.37    4.66
  -7  -5 -13    8.82    4.57
   8   5  13   -2.92    4.11
  -8  -5 -13    3.96    4.56
   9   5  13    1.21    4.02
  -9  -5 -13   -6.17    4.10
  14   6 -13    8.70    5.08
 -14  -6  13    4.70    5.94
 -13  -6  13   11.33    6.41
  13   6 -13   -5.39    4.91
 -12  -6  13    6.29    5.40
  12   6 -13   -6.97    5.36
 -11  -6  13    0.93    5.18
  11   6 -13    0.85    4.65
 -10  -6  13    6.21    5.26
  10   6 -13   -3.47    4.63
   9   6 -13    3.07    4.79
  -9  -6  13   -2.02    5.04
  -9   6  13   -7.84   24.04
   8   6 -13   -8.38    4.84
  -8  -6  13  -11.66    4.82
  -8   6  13   32.99   18.67
   8  -6 -13   31.42   15.27
   7   6 -13    6.94    5.73
  -7  -6  13  -12.36    5.55
   7  -6 -13  -13.34   12.06
  -7   6  13   25.21   14.96
  -6  -6  13   -7.44    6.61
   6   6 -13    1.39    6.82
  -6   6  13  -19.40   12.33
   6  -6 -13   12.79   10.17
   5   6 -13    8.57    7.84
  -5  -6  13    0.24    8.06
   5  -6 -13   -6.60    8.20
  -5   6  13   14.56   10.91
  -4  -6  13    2.62   11.54
   4   6 -13   -2.46   10.92
   4  -6 -13  -15.97    7.30
  -4   6  13    5.47    9.52
   3   6 -13   -5.92   19.88
   3  -6 -13    2.14    7.18
  -3   6  13   -8.17    8.13
   2  -6 -13   -7.18    6.12
  -2   6  13  -13.12    7.35
  -1   6  13   -1.05    6.95
   1  -6 -13   -5.67    5.93
   0  -6 -13   -5.94    5.33
   0   6  13    1.01    6.27
  -1  -6 -13    7.76    5.29
   1   6  13  -14.82    5.47
   2   6  13    2.16    5.23
  -2  -6 -13   12.68    4.87
   3   6  13    2.57    4.91
  -3  -6 -13    7.15    4.64
  -4  -6 -13    3.22    4.47
   4   6  13   -5.90    4.76
   5   6  13    0.17    4.47
  -5  -6 -13    6.30    4.43
   6   6  13    4.26    4.06
  -6  -6 -13   -2.81    4.45
 -10   7  13    4.68   16.63
  10  -7 -13    8.14   13.05
 -10  -7  13    4.48    5.10
  10   7 -13   12.87    5.02
   9  -7 -13    4.46   10.11
  -9  -7  13    3.80    4.87
   9   7 -13   -3.79    4.62
  -9   7  13   40.78   13.94
   8   7 -13    1.64    4.67
  -8  -7  13    1.88    4.79
  -8   7  13   25.33   11.52
   8  -7 -13  -10.53    8.31
  -7  -7  13    5.35    4.61
   7   7 -13   -1.13    4.77
   7  -7 -13   -2.91    7.38
  -7   7  13   10.73    9.90
   6   7 -13   -2.61    5.01
   6  -7 -13   -3.81    6.86
  -6   7  13    3.77    8.41
  -5  -7  13    3.86    6.11
   5   7 -13    2.07    6.27
   5  -7 -13  -13.15    5.75
  -5   7  13   -7.00    7.35
   4   7 -13   -3.24    7.99
  -4  -7  13   -7.74    6.99
  -4   7  13    3.26    7.12
   4  -7 -13   -2.55    5.38
  -3  -7  13   14.00   10.69
   3   7 -13   16.04   10.24
   3  -7 -13    3.34    5.38
   2   7 -13  -32.92   15.68
   2  -7 -13    3.32    5.18
  -1   7  13    1.96    5.29
   1  -7 -13    1.59    4.62
   0  -7 -13    2.42    4.23
   0   7  13   -6.19    4.84
  -1  -7 -13    1.62    4.07
   1   7  13  -10.16    4.38
  -2  -7 -13    2.58    4.01
 -21   0  14    0.94    6.10
  21   0 -14   -6.56    4.75
 -20   0  14    6.19    6.29
  20   0 -14    1.05    4.62
 -19   0  14    9.90    6.01
  19   0 -14   -1.57    4.64
  18   0 -14   -0.83    4.78
 -18   0  14    6.94    6.06
  17   0 -14   12.71    5.25
 -17   0  14    7.06    5.84
  16   0 -14    0.82    5.36
 -16   0  14   -5.34    6.58
  15   0 -14   16.51    6.98
 -15   0  14   16.53    7.87
 -14   0  14   -6.17    8.06
  14   0 -14   44.17    9.25
  13   0 -14   -1.01    9.92
 -13   0  14    5.56   10.69
 -12   0  14  -28.99   15.05
  12   0 -14   57.03   15.46
  11   0 -14   77.65   22.51
   4   0  14    9.56   33.53
  -5   0 -14  117.56   27.24
   5   0  14   13.10   26.04
   6   0  14   -2.31   20.76
  -6   0 -14   61.31   22.10
  -7   0 -14    2.02   17.21
   7   0  14  -13.29   15.23
   8   0  14   -8.86   12.60
  -8   0 -14   29.04   14.06
  -9   0 -14   -1.54   11.49
   9   0  14   13.15   10.81
 -10   0 -14    6.47   10.51
  10   0  14   18.90    9.54
 -11   0 -14    2.96    9.08
  11   0  14    1.55    7.72
 -12   0 -14   -0.30    8.16
  12   0  14    5.15    6.79
 -21   1  14    7.80    6.03
  21  -1 -14   -1.22    4.29
 -21  -1  14   -5.89    6.61
  21   1 -14   -7.09    4.54
 -20   1  14   11.40    6.12
  20  -1 -14    3.53    4.56
 -20  -1  14   21.76    6.51
  20   1 -14   -5.11    4.99
  19  -1 -14    8.04    4.93
 -19  -1  14   17.33    6.30
  19   1 -14    2.42    4.74
 -19   1  14    1.41    5.90
 -18  -1  14    7.10    5.75
  18   1 -14    1.76    4.87
  18  -1 -14   -4.52    4.74
  17   1 -14    1.00    4.51
 -17  -1  14   -0.86    5.67
  17  -1 -14   -0.33    5.35
 -17   1  14    0.39    6.73
  16   1 -14   15.68    5.45
 -16   1  14    4.32    8.10
 -16  -1  14    1.98    5.89
  16  -1 -14   10.57    6.78
 -15   1  14   26.70    9.03
  15  -1 -14   10.03    8.43
 -15  -1  14    1.08    6.45
  15   1 -14   -0.64    5.21
  14   1 -14   11.46    6.78
 -14   1  14    8.80   11.41
 -14  -1  14   -2.81    7.58
  14  -1 -14  -11.35   10.05
 -13  -1  14   31.76    8.28
 -13   1  14   37.46   17.73
  13  -1 -14   -5.13   14.35
  13   1 -14   15.27    8.54
  12   1 -14   15.69   10.10
  12  -1 -14   48.57   21.98
 -12  -1  14   21.60   10.85
 -11  -1  14   76.76   15.22
  11   1 -14   68.52   13.71
 -10  -1  14  -21.57   18.33
  10   1 -14    1.66   20.90
   2   1  14   16.64   33.75
  -3  -1 -14  -13.28   25.48
   3   1  14   12.57   26.31
   4   1  14   48.33   21.15
  -4  -1 -14   13.92   20.02
  -5  -1 -14   16.48   16.99
   5   1  14  -38.39   16.25
   6  -1  14    3.60   29.53
  -6  -1 -14   16.01   13.78
   6   1  14   -5.30   13.21
   7  -1  14    2.14   22.25
  -7   1 -14    3.70   24.06
  -7  -1 -14    6.00   11.65
   7   1  14    6.73   11.52
  -8   1 -14   16.58   20.05
   8  -1  14   -7.76   17.61
  -8  -1 -14   11.76   10.56
   8   1  14    7.43    9.68
  -9   1 -14  -28.08   15.40
  -9  -1 -14    2.20    9.07
   9  -1  14    6.61   14.13
  10  -1  14   15.78   12.07
 -10  -1 -14  -12.71    7.86
  10   1  14    5.02    7.44
 -10   1 -14    8.31   13.28
 -11   1 -14    3.64   11.64
  11   1  14   -1.86    6.56
  11  -1  14   -2.00   10.02
 -11  -1 -14  -12.51    7.07
 -12  -1 -14    2.86    7.10
 -12   1 -14   -2.98   10.06
  12  -1  14    4.70    8.75
  12   1  14   10.82    5.98
 -20  -2  14   14.52    6.94
  20   2 -14   -4.66    4.51
  20  -2 -14    3.56    4.68
 -20   2  14   -9.09    5.61
  19   2 -14   -1.03    5.26
  19  -2 -14    4.60    4.72
 -19   2  14   -7.03    5.98
 -18  -2  14   10.54    6.00
  18   2 -14    8.12    5.11
  18  -2 -14   10.66    5.41
 -18   2  14    4.16    6.94
 -17  -2  14    0.86    5.77
  17   2 -14    0.18    4.78
 -17   2  14   16.01    8.54
  17  -2 -14    0.39    6.59
 -16  -2  14   11.62    5.88
  16   2 -14    6.53    4.90
  16  -2 -14    7.43    7.78
 -16   2  14   30.41    9.98
  15   2 -14    2.18    5.14
 -15   2  14   -7.35   12.39
  15  -2 -14   25.93   10.16
 -15  -2  14   10.90    6.10
 -14  -2  14   21.54    6.23
 -14   2  14   15.82   18.35
  14   2 -14    0.97    5.04
  14  -2 -14   16.53   14.74
 -13  -2  14   -3.02    6.88
  13   2 -14  -10.92    6.36
 -12  -2  14    3.79    8.25
  12   2 -14   14.24    8.14
 -11  -2  14  -23.53    9.33
  11   2 -14   20.87    9.25
 -10  -2  14   56.41   14.00
  10   2 -14   44.02   12.54
  -9  -2  14   67.40   19.64
   9   2 -14    3.47   18.73
   0   2  14   51.35   32.67
   0  -2 -14   44.15   30.00
   1   2  14   43.54   25.18
  -1  -2 -14  -16.42   22.97
   2   2  14   17.54   20.23
  -2  -2 -14   12.25   19.40
   3   2  14    0.90   16.58
  -3  -2 -14   14.60   15.97
  -4  -2 -14   -0.40   13.17
   4   2  14   -0.79   14.23
  -5  -2 -14   52.10   12.36
   5   2  14  -19.34   11.58
  -6  -2 -14   -1.00    9.72
   6   2  14    6.09   10.03
  -7  -2 -14  -11.05    8.30
   7   2  14  -19.24    8.38
   8  -2  14   32.40   26.38
  -8  -2 -14   -1.63    7.74
   8   2  14   -0.54    7.49
   9  -2  14   51.40   20.69
  -9   2 -14   11.02   24.34
   9   2  14    6.41    6.86
  -9  -2 -14   -3.90    7.24
 -10   2 -14    2.59   18.88
  10  -2  14   22.74   16.01
 -10  -2 -14   -3.46    6.62
  10   2  14    2.20    6.07
 -11   2 -14  -10.57   15.92
  11  -2  14    8.38   12.94
 -11  -2 -14    5.93    6.29
  11   2  14   -2.55    5.36
 -19  -3  14  -18.86    6.57
  19   3 -14    1.24    4.78
  19  -3 -14   -0.70    5.41
 -19   3  14    9.23    7.21
 -18  -3  14    5.42    6.94
  18   3 -14    2.27    5.23
 -18   3  14   18.66    7.90
  18  -3 -14   -1.39    6.43
 -17  -3  14  -11.42    5.56
  17   3 -14   -5.60    5.22
  17  -3 -14   11.47    7.87
 -17   3  14   19.30    9.73
 -16  -3  14   12.01    6.01
  16   3 -14   10.73    5.14
 -16   3  14  -18.71   12.79
  16  -3 -14    4.11   10.26
 -15  -3  14   -4.67    5.58
  15   3 -14    7.32    4.93
 -15   3  14   23.50   18.14
  15  -3 -14  -29.41   15.12
  14   3 -14   12.28    5.36
 -14  -3  14   10.59    5.80
  13   3 -14   11.64    5.37
 -13  -3  14   33.08    6.12
 -12  -3  14    5.09    6.57
  12   3 -14   -5.87    5.80
 -11  -3  14    2.13    7.65
  11   3 -14   18.24    7.67
 -10  -3  14  -22.47    8.34
  10   3 -14    1.49    8.17
  -9  -3  14    8.92   11.16
   9   3 -14   44.92   11.24
  -8  -3  14   15.39   17.53
   8   3 -14   18.90   15.46
   7   3 -14   13.92   21.47
  -2   3  14    9.68   29.61
   2  -3 -14  -34.43   26.30
  -1   3  14  -59.83   22.44
   1  -3 -14  -15.08   20.94
   0  -3 -14   12.77   17.13
   0   3  14  -47.14   18.22
   1   3  14    1.28   16.27
  -1  -3 -14   -5.27   13.99
  -2  -3 -14   16.78   12.33
   2   3  14  -12.11   13.15
  -3  -3 -14   -5.59   10.47
   3   3  14    3.78   11.87
  -4  -3 -14   14.03    9.79
   4   3  14  -21.77    9.49
  -5  -3 -14  -15.10    7.91
   5   3  14  -14.55    8.47
   6   3  14   -2.64    7.81
  -6  -3 -14   -3.93    7.36
  -7  -3 -14    1.78    7.03
   7   3  14   -1.48    6.75
  -8  -3 -14    2.87    6.54
   8   3  14   -6.63    5.90
  -9  -3 -14    6.24    6.24
   9   3  14   -6.89    5.29
  10   3  14    7.22    5.12
 -10  -3 -14   -6.40    5.22
  11  -3  14   38.33   18.61
  18   4 -14    1.06    4.75
 -18  -4  14   11.03    6.56
  18  -4 -14   17.68    7.33
 -18   4  14    1.35    9.70
 -17  -4  14   10.34    6.54
  17   4 -14   -1.03    4.91
 -17   4  14    2.72   15.14
  17  -4 -14   -0.62   10.27
 -16  -4  14   15.95    5.99
  16   4 -14   -1.26    5.15
  16  -4 -14    6.74   16.99
 -15  -4  14   13.58    5.98
  15   4 -14   -2.34    4.79
 -14  -4  14   25.73    5.98
  14   4 -14    5.33    5.04
  13   4 -14   -1.54    5.00
 -13  -4  14    8.91    5.60
  12   4 -14    7.75    5.28
 -12  -4  14   15.46    5.57
  11   4 -14    8.98    5.49
 -11  -4  14   -7.27    6.00
  10   4 -14   -6.36    6.90
 -10  -4  14    4.03    7.21
  -9  -4  14    4.80    7.81
   9   4 -14   12.53    8.66
   8   4 -14   29.10   10.44
  -8  -4  14   28.90   10.28
  -7  -4  14   -9.29   15.44
   7   4 -14   20.32   14.68
   6   4 -14  -54.05   21.60
  -4   4  14   16.03   27.14
   4  -4 -14   49.26   24.28
  -3   4  14   33.31   22.01
   3  -4 -14   -3.47   18.72
   2  -4 -14   26.52   15.42
  -2   4  14   15.56   17.68
  -1   4  14   27.87   15.28
   1  -4 -14  -30.50   12.42
   0  -4 -14    1.83   11.10
   0   4  14   -4.34   12.51
  -1  -4 -14  -12.87    9.68
   1   4  14    5.87   10.89
  -2  -4 -14  -15.04    8.64
   2   4  14    0.29    9.20
  -3  -4 -14    1.64    7.83
   3   4  14   -3.42    8.59
   4   4  14   -2.04    7.86
  -4  -4 -14   -9.17    7.10
  -5  -4 -14    5.19    6.69
   5   4  14   -3.56    6.70
  -6  -4 -14   -1.17    6.22
   6   4  14    4.55    6.17
   7   4  14    4.89    5.52
  -7  -4 -14    3.39    5.68
  -8  -4 -14    7.26    5.51
   8   4  14   -2.47    4.90
   9   4  14    1.79    4.57
  -9  -4 -14    4.71    5.08
 -16  -5  14   18.09    6.77
  16   5 -14   -5.07    4.67
 -15  -5  14   -0.91    5.79
  15   5 -14   -4.84    5.00
 -14  -5  14  -14.60    5.37
  14   5 -14    5.17    4.97
 -13  -5  14   -6.60    5.34
  13   5 -14    5.82    4.88
  12   5 -14   -0.52    4.70
 -12  -5  14    3.24    5.34
  11   5 -14   -1.57    5.13
 -11  -5  14    1.23    5.23
 -10  -5  14    4.66    6.02
  10   5 -14    0.17    5.22
   9   5 -14   15.03    6.59
  -9  -5  14   21.29    6.60
  -8  -5  14   -1.47    6.75
   8   5 -14    2.47    7.71
   7   5 -14   -2.49    8.54
  -7  -5  14   -7.26    8.68
  -6  -5  14  -12.52   12.83
   6   5 -14   -6.12   12.70
  -6   5  14   -4.54   23.87
   6  -5 -14  -24.64   19.31
   5   5 -14   31.48   21.59
   5  -5 -14   15.58   15.84
  -5   5  14   -4.77   18.96
   4  -5 -14   -5.22   12.89
  -3   5  14   71.40   14.03
   3  -5 -14   -8.15   10.58
   2  -5 -14  -24.31    8.96
  -2   5  14   -5.15   11.42
   1  -5 -14    3.93    8.65
  -1   5  14   17.15   10.13
   0  -5 -14   -2.67    7.91
   0   5  14    3.26    8.75
  -1  -5 -14   -2.12    7.05
   1   5  14   -9.17    7.76
   2   5  14    1.92    7.03
  -2  -5 -14   -8.51    6.52
  -3  -5 -14   -8.62    6.04
   3   5  14    2.28    6.86
  -4  -5 -14    5.46    5.75
   4   5  14   -0.22    6.14
   5   5  14   -4.70    5.25
  -5  -5 -14    3.92    5.46
  -6  -5 -14    8.87    5.02
   6   5  14    8.73    5.02
  -7  -5 -14   10.41    4.87
   7   5  14    4.20    4.62
 -13  -6  14   -0.85    5.34
  13   6 -14    2.07    5.13
 -12  -6  14   -3.53    5.15
  12   6 -14   -2.75    4.62
  11   6 -14    1.74    4.69
 -11  -6  14   -6.77    4.84
  10   6 -14    0.17    4.82
 -10  -6  14    4.77    4.98
   9   6 -14  -11.80    4.89
  -9   6  14  -13.28   27.54
   8   6 -14    8.19    6.18
  -8  -6  14  -15.55    5.45
  -8   6  14   -2.41   21.00
   8  -6 -14   11.22   16.86
  -7  -6  14   10.34    5.96
   7   6 -14   11.95    7.04
  -7   6  14   12.40   16.69
   7  -6 -14    9.68   13.59
   6   6 -14    4.72    7.80
  -6  -6  14   -0.52    7.80
   6  -6 -14  -11.02   10.63
  -6   6  14  -19.19   13.67
  -5  -6  14   -3.42   10.99
   5   6 -14   -4.84   10.77
  -5   6  14   11.88   12.03
   5  -6 -14   -7.88    8.95
  -4  -6  14    3.81   15.38
   4   6 -14  -21.50   17.83
   4  -6 -14   14.95    8.34
  -4   6  14   -1.95   10.47
   3  -6 -14   -7.63    7.35
   2  -6 -14   10.48    6.99
  -2   6  14   -5.15    8.11
   1  -6 -14   29.75    6.76
  -1   6  14    7.85    7.85
   0   6  14  -10.32    6.66
   0  -6 -14  -10.07    5.73
  -1  -6 -14   13.86    5.80
   1   6  14   12.98    6.56
  -2  -6 -14    5.34    5.23
   2   6  14    4.34    5.71
   3   6  14    9.45    5.30
  -3  -6 -14    4.43    4.76
   4   6  14  -10.34    4.68
  -4  -6 -14   -6.03    4.38
   7   7 -14    4.96    5.25
  -7  -7  14    4.04    5.53
  -6  -7  14  -12.28    5.91
   6   7 -14   -3.08    6.15
   6  -7 -14    1.36    7.16
  -6   7  14  -17.96    9.53
   5   7 -14    2.49    8.10
  -5  -7  14  -10.03    7.22
   5  -7 -14   -1.23    6.66
  -5   7  14  -10.12    8.38
  -4  -7  14    5.76   10.13
   4   7 -14  -10.99    9.39
   4  -7 -14   11.51    6.22
  -4   7  14  -11.22    7.50
  -3  -7  14   26.18   14.69
   3   7 -14  -14.82   14.80
  -3   7  14   -0.47    7.10
   3  -7 -14    1.25    5.49
  -2   7  14  -10.29    6.30
   2  -7 -14    8.45    5.69
 -20   0  15    1.89    5.92
  20   0 -15    5.70    4.64
  19   0 -15    2.65    4.77
 -19   0  15   -5.38    5.70
  18   0 -15    8.00    4.95
 -18   0  15    8.77    5.99
  17   0 -15   -0.35    5.33
 -17   0  15   -5.58    6.52
  16   0 -15   -6.15    6.34
 -16   0  15    3.72    7.62
 -15   0  15    7.53    8.22
  15   0 -15  -10.76    8.10
  14   0 -15   -3.66    9.22
 -14   0  15   10.07   10.38
 -13   0  15    1.89   14.16
  13   0 -15   -0.36   12.75
 -12   0  15   16.59   18.84
  12   0 -15   41.00   20.97
   4   0  15  101.23   35.76
   5   0  15  -15.83   25.80
  -5   0 -15   21.75   26.51
   6   0  15   13.87   20.98
  -6   0 -15    6.69   22.80
  -7   0 -15  -36.40   17.72
   7   0  15   21.75   16.84
   8   0  15  -22.04   12.68
  -8   0 -15   36.18   14.62
  -9   0 -15   -1.79   12.63
   9   0  15   15.76   11.83
  10   0  15   -1.61   10.17
 -11   0 -15   -1.88    9.74
  11   0  15   16.37    8.81
 -20  -1  15   15.21    6.33
  20   1 -15    2.26    4.54
  20  -1 -15    4.87    4.76
 -20   1  15    6.60    5.97
 -19  -1  15   -3.92    5.94
  19   1 -15    5.20    4.84
 -19   1  15    4.77    6.07
  19  -1 -15    6.15    4.91
  18   1 -15    0.71    4.80
 -18  -1  15   -2.99    5.90
 -18   1  15   12.57    6.98
  18  -1 -15    8.58    5.42
  17   1 -15    2.81    5.00
 -17  -1  15   11.32    5.88
 -17   1  15    7.40    8.18
  17  -1 -15  -12.93    6.37
 -16   1  15   16.59    9.01
  16  -1 -15   18.49    8.44
  16   1 -15   -1.04    5.20
 -16  -1  15    0.99    6.49
  15   1 -15    6.53    6.70
 -15   1  15    6.16   11.12
 -15  -1  15   -0.22    7.45
  15  -1 -15    5.87    9.70
 -14   1  15    7.63   15.60
  14   1 -15   -5.52    7.93
  14  -1 -15   13.33   14.01
  13   1 -15   17.18    9.43
  13  -1 -15   19.39   20.66
 -13  -1  15    5.72   10.02
 -12  -1  15   -6.00   13.51
  12   1 -15   36.11   12.59
 -11  -1  15   31.04   19.52
  11   1 -15   26.78   19.09
   2   1  15  -34.65   36.52
   3   1  15  -10.67   26.04
  -3  -1 -15  -28.30   25.40
   4   1  15   33.12   21.12
  -4  -1 -15  -33.86   19.92
  -5  -1 -15    7.20   17.46
   5   1  15   38.99   17.91
   6   1  15   -5.19   14.49
  -6  -1 -15    4.35   14.42
   7  -1  15  -10.62   23.57
  -7   1 -15   -8.52   24.60
  -7  -1 -15   -7.70   11.79
   7   1  15  -11.88   12.28
   8  -1  15   -3.41   18.60
  -8   1 -15   27.43   21.05
  -8  -1 -15   17.64   11.13
   8   1  15  -12.01   10.19
   9  -1  15  -22.39   14.31
  -9   1 -15   -0.60   17.01
  -9  -1 -15   23.92   10.16
   9   1  15   12.25    9.18
 -10   1 -15  -36.32   13.85
 -10  -1 -15   -8.92    8.31
  10   1  15   -2.21    7.74
  10  -1  15   18.83   12.91
 -11  -1 -15    5.12    7.59
  11   1  15   -6.57    6.79
 -11   1 -15   10.36   12.65
 -20  -2  15    6.05    5.86
  20   2 -15   -4.00    4.98
  20  -2 -15   -3.86    4.57
 -20   2  15    8.68    6.39
 -19  -2  15   13.77    6.29
  19   2 -15    2.46    4.62
  19  -2 -15   -2.77    5.42
 -19   2  15   -2.04    7.09
 -18  -2  15   -5.64    5.62
  18   2 -15    0.95    4.84
  18  -2 -15    3.94    6.73
  17   2 -15   -0.54    4.88
 -17  -2  15    8.87    5.75
  17  -2 -15  -18.10    6.87
 -17   2  15   25.29    9.71
  16   2 -15    0.55    5.30
 -16   2  15    9.49   12.17
  16  -2 -15    3.51    9.67
 -16  -2  15    6.26    5.74
  15   2 -15    7.61    5.34
 -15   2  15   10.65   17.58
  15  -2 -15    2.09   13.63
 -15  -2  15   -3.54    6.28
  14  -2 -15  -23.29   19.88
  14   2 -15    0.19    6.28
 -13  -2  15   28.01    8.62
  13   2 -15    3.49    7.88
 -12  -2  15   -5.61    9.65
  12   2 -15   39.86    9.55
 -11  -2  15   29.69   12.69
  11   2 -15    6.40   12.02
 -10  -2  15   22.56   17.94
  10   2 -15    4.70   16.67
   9   2 -15  -10.87   21.83
   0   2  15    0.92   35.03
  -1  -2 -15   28.42   24.45
   1   2  15   36.43   26.17
   2   2  15   11.61   20.83
  -2  -2 -15   -6.73   19.36
  -3  -2 -15   30.32   16.90
   3   2  15   -4.69   17.02
   4   2  15   -1.81   14.55
  -4  -2 -15   37.68   14.57
  -5  -2 -15   -3.26   11.70
   5   2  15  -14.74   12.30
  -6  -2 -15    2.27   10.63
   6   2  15    3.36   10.70
  -7  -2 -15   -3.13    9.14
   7   2  15   -2.99    8.90
  -8  -2 -15    6.61    8.28
   8   2  15   -9.13    7.97
   9  -2  15   10.90   21.69
   9   2  15  -16.89    6.86
  -9  -2 -15   -2.32    7.54
 -10   2 -15   38.57   20.49
  10  -2  15  -19.58   16.43
  10   2  15  -12.85    6.37
 -10  -2 -15   -0.84    7.38
 -19  -3  15    9.50    6.36
  19   3 -15    3.76    5.07
 -19   3  15   10.00    7.83
  19  -3 -15   13.59    6.76
 -18  -3  15    7.06    6.03
  18   3 -15    4.84    5.01
  18  -3 -15   -1.84    7.38
 -18   3  15   -0.98    9.57
 -17  -3  15    1.79    5.81
  17   3 -15   -0.95    4.99
 -17   3  15   -2.80   12.77
  17  -3 -15   20.86    9.90
  16   3 -15    2.35    4.85
 -16  -3  15   -2.65    5.71
 -16   3  15   -2.70   17.67
  16  -3 -15  -11.24   14.00
  15   3 -15   -9.94    5.02
  15  -3 -15  -21.97   18.14
  14   3 -15   -0.35    5.23
 -14  -3  15   14.98    6.03
 -13  -3  15    2.39    6.58
  13   3 -15   -2.26    6.06
 -12  -3  15   31.72    8.17
  12   3 -15   -0.21    7.37
 -11  -3  15    6.41    8.69
  11   3 -15    5.24    8.22
 -10  -3  15    7.07   10.63
  10   3 -15   18.03   11.12
  -9  -3  15  -17.55   15.33
   9   3 -15    5.16   14.91
   8   3 -15   30.14   22.87
  -2   3  15   -6.93   31.82
   1  -3 -15    9.75   22.68
  -1   3  15   19.39   24.20
   0  -3 -15  -30.53   17.83
   0   3  15   29.74   20.34
  -1  -3 -15   30.74   15.36
   1   3  15   -3.49   16.26
  -2  -3 -15    8.95   12.81
   2   3  15    0.86   14.02
  -3  -3 -15   21.42   11.37
   3   3  15   14.17   12.42
  -4  -3 -15  -14.67    9.81
   4   3  15  -16.76   10.18
  -5  -3 -15   -3.03    8.90
   5   3  15   -6.96    8.86
  -6  -3 -15   22.32    8.25
   6   3  15    1.76    8.03
   7   3  15   -4.53    7.29
  -7  -3 -15    7.87    7.37
  -8  -3 -15  -12.87    6.78
   8   3  15   -3.45    6.60
  -9  -3 -15   11.35    6.80
   9   3  15   -7.65    6.02
 -17  -4  15    0.19    5.79
  17   4 -15    5.23    5.14
  17  -4 -15    2.01   15.64
 -16  -4  15   11.58    5.67
  16   4 -15    7.53    4.91
 -15  -4  15    3.34    5.62
  15   4 -15   -2.57    4.65
  14   4 -15   -0.18    4.94
 -14  -4  15    1.37    5.67
  13   4 -15   -1.80    5.12
  12   4 -15    8.79    5.95
 -12  -4  15   -1.35    6.16
  11   4 -15   -3.96    6.56
 -11  -4  15   12.99    7.21
 -10  -4  15    8.36    7.90
  10   4 -15   15.84    8.35
   9   4 -15   -2.55    9.50
  -9  -4  15  -14.87    9.17
  -8  -4  15    0.94   13.67
   8   4 -15   28.90   14.19
   7   4 -15   11.07   20.66
  -4   4  15    9.76   28.61
   3  -4 -15   19.38   20.03
  -3   4  15   -7.20   22.38
  -2   4  15  -27.15   18.07
   2  -4 -15  -34.49   15.98
   1  -4 -15  -37.64   12.83
  -1   4  15   20.84   16.20
   0  -4 -15   16.67   11.96
   0   4  15   26.02   13.96
  -1  -4 -15   -2.69   10.28
   1   4  15    7.92   11.78
  -2  -4 -15   -1.78    9.50
   2   4  15    4.06   10.18
  -3  -4 -15   14.23    8.70
   3   4  15  -10.01    8.66
  -4  -4 -15  -14.62    7.10
   4   4  15   13.29    8.29
   5   4  15   -4.63    7.34
  -5  -4 -15   -1.10    6.45
  -6  -4 -15    1.61    6.75
   6   4  15   -5.13    6.50
  -7  -4 -15    7.80    6.27
   8   4  15   -7.41    5.29
  -8  -4 -15   -8.78    5.75
 -15  -5  15    7.68    5.53
  15   5 -15    2.92    4.77
 -14  -5  15    4.35    5.45
  14   5 -15    2.50    4.78
  13   5 -15    0.74    4.84
 -13  -5  15   10.18    5.27
  12   5 -15    8.38    5.16
 -12  -5  15   18.69    5.41
  11   5 -15    8.87    5.40
 -11  -5  15    1.69    5.92
  10   5 -15   -5.16    6.31
 -10  -5  15   -4.60    6.43
  -9  -5  15   -2.48    7.04
   9   5 -15   14.92    8.00
   8   5 -15   17.76    8.97
  -7  -5  15   -4.13   11.94
   7   5 -15    5.92   11.85
  -6  -5  15  -18.88   16.24
   6   5 -15   23.26   19.05
  -6   5  15   18.23   26.54
  -5   5  15    6.78   20.74
   5  -5 -15    9.01   16.52
  -4   5  15   -8.40   17.21
   4  -5 -15    1.09   13.79
  -3   5  15   -8.00   14.02
   3  -5 -15   33.35   12.20
   2  -5 -15  -17.35    9.54
  -2   5  15   22.48   12.85
   1  -5 -15   20.57    9.09
  -1   5  15   12.94   11.05
   0  -5 -15    0.69    8.11
   0   5  15   13.07    9.59
  -1  -5 -15   -0.62    7.40
   1   5  15   -1.16    8.37
  -2  -5 -15  -18.95    6.50
   2   5  15    6.58    8.10
   3   5  15    2.59    7.04
  -3  -5 -15   -8.35    6.11
  -4  -5 -15   -3.61    6.10
   4   5  15  -17.29    6.44
  -5  -5 -15  -13.30    5.22
  11   6 -15    5.26    4.95
 -11  -6  15   -0.65    4.96
 -10  -6  15  -12.53    5.26
  10   6 -15    5.05    5.10
   9   6 -15   -0.20    5.87
  -9  -6  15    0.60    5.90
   8   6 -15   10.97    7.15
  -8   6  15  -41.65   23.03
   7   6 -15   -4.45    7.89
  -7  -6  15    2.79    8.01
  -7   6  15   -5.78   18.66
   7  -6 -15  -21.80   13.96
  -6  -6  15  -16.41   10.46
   6   6 -15  -19.23   10.27
   6  -6 -15   -3.18   11.64
  -6   6  15    0.49   15.27
  -5  -6  15   -4.05   15.53
   5   6 -15    7.95   16.11
  -5   6  15   31.79   13.64
   5  -6 -15   -0.46    9.64
   4   6 -15    0.68   22.58
   4  -6 -15   -5.60    8.58
  -4   6  15  -18.03   11.10
   3  -6 -15   12.75    8.47
  -3   6  15    2.37   10.23
   2  -6 -15   10.71    7.60
  -2   6  15    0.60    8.66
   1  -6 -15  -10.17    6.52
  -1   6  15   17.03    8.26
   0   6  15   -1.86    7.51
   0  -6 -15   -6.57    6.14
   1   6  15    2.48    6.95
  -1  -6 -15    3.97    5.99
  -2  -6 -15    3.49    5.53
   2   6  15   -6.20    6.19
 -19   0  16    2.00    6.18
  19   0 -16    5.50    5.07
  18   0 -16    8.66    5.53
 -18   0  16    6.85    7.06
  17   0 -16    4.49    6.67
 -17   0  16   12.18    7.90
 -16   0  16   10.72    8.42
  16   0 -16    3.20    8.16
  15   0 -16   -0.27    8.77
 -15   0  16   31.55   10.51
 -14   0  16   13.36   13.59
  14   0 -16   15.04   12.22
 -13   0  16  -34.51   17.83
  13   0 -16   -7.76   17.85
   5   0  16  -45.09   26.63
  -5   0 -16    4.60   26.65
  -6   0 -16  -19.80   21.39
   6   0  16   32.98   22.50
  -7   0 -16  -22.92   17.71
   7   0  16    3.23   16.87
  -8   0 -16   32.41   16.11
   8   0  16    4.50   14.10
   9   0  16   13.27   12.10
  -9   0 -16  -27.17   12.10
  19   1 -16    6.23    4.95
 -19  -1  16    2.33    5.90
 -19   1  16   -0.47    7.11
  19  -1 -16   16.30    5.89
  18   1 -16    3.92    5.02
 -18   1  16  -12.79    7.63
 -18  -1  16    9.76    5.94
  18  -1 -16    0.43    6.73
 -17   1  16   28.58    9.06
  17   1 -16    4.13    5.31
 -17  -1  16   10.07    6.73
  17  -1 -16   11.36    8.30
  16  -1 -16   22.07    9.23
  16   1 -16    4.64    6.49
 -16  -1  16   10.33    7.35
 -15  -1  16   12.81    8.02
 -15   1  16   -6.56   14.35
  15   1 -16    0.72    7.88
  15  -1 -16   24.72   13.06
  14   1 -16   14.55    9.08
 -14   1  16   39.69   18.89
  14  -1 -16   34.54   19.65
 -14  -1  16    3.21   10.03
 -13  -1  16   26.43   13.63
  13   1 -16   17.61   12.01
 -12  -1  16  -13.50   18.05
  12   1 -16   -6.94   16.25
  11   1 -16   70.72   23.25
   2   1  16  -61.85   37.89
   3   1  16   47.00   29.09
  -3  -1 -16   50.72   26.60
   4   1  16    2.90   22.55
  -4  -1 -16   28.38   22.43
   5   1  16   68.83   19.29
  -5  -1 -16   -4.40   18.32
  -6  -1 -16  -26.17   14.81
   6   1  16   39.73   16.22
   7  -1  16   13.00   24.36
  -7  -1 -16   -7.87   12.51
   7   1  16  -12.79   11.93
  -8   1 -16   47.19   21.79
   8  -1  16    5.40   19.26
  -8  -1 -16   24.43   11.42
   8   1  16    0.88   11.03
   9  -1  16   14.63   15.94
  -9   1 -16   18.48   18.17
  -9  -1 -16   30.29   10.65
   9   1  16   16.45    9.92
 -19  -2  16   16.62    6.11
  19   2 -16    5.28    4.82
 -19   2  16   -2.28    8.53
  19  -2 -16    0.88    6.65
  18   2 -16    5.75    4.91
 -18  -2  16    9.88    5.70
  18  -2 -16    5.34    7.40
 -18   2  16    4.39    9.12
  17   2 -16    7.84    4.95
 -17  -2  16   -1.86    5.58
 -17   2  16  -20.86   11.01
  17  -2 -16   19.24    9.43
 -16   2  16  -28.75   16.38
  16  -2 -16   -8.54   12.82
  15  -2 -16   -6.92   19.13
  15   2 -16  -10.31    6.33
 -15  -2  16    0.22    6.72
 -14  -2  16   12.89    8.37
  14   2 -16   26.86    7.98
 -13  -2  16    4.33    9.03
  13   2 -16  -14.03    8.32
 -12  -2  16   10.56   12.08
  12   2 -16    4.27   11.33
 -11  -2  16   -8.45   17.19
  11   2 -16   11.57   15.82
  10   2 -16    3.37   22.01
   0   2  16   52.75   36.44
   1   2  16  -25.87   26.30
  -1  -2 -16    7.50   24.83
   2   2  16   41.80   22.29
  -2  -2 -16  -41.13   19.33
  -3  -2 -16   10.27   17.00
   3   2  16   28.34   18.63
   4   2  16   14.60   15.52
  -4  -2 -16  -20.98   14.12
  -5  -2 -16  -14.21   11.82
   5   2  16   20.29   13.25
  -6  -2 -16   -1.28   10.95
   6   2  16    0.42   11.49
  -7  -2 -16  -25.76    9.29
   7   2  16   -3.10    9.94
  -8  -2 -16  -16.82    8.45
   8   2  16  -15.55    8.28
   9  -2  16  -19.02   21.66
  -9  -2 -16  -16.55    7.62
 -18  -3  16   -0.77    5.65
  18   3 -16    1.02    4.82
 -18   3  16   19.01   13.02
  18  -3 -16   13.53    9.81
 -17  -3  16   -6.14    5.56
 -17   3  16  -24.45   17.04
  17  -3 -16  -16.36   12.84
  16   3 -16   11.84    5.29
  16  -3 -16    1.93   19.27
 -16  -3  16    3.84    5.57
  15   3 -16    2.23    5.17
 -15  -3  16    0.78    5.88
 -14  -3  16    5.82    6.78
  14   3 -16    2.67    6.14
 -13  -3  16    6.91    7.64
  13   3 -16  -17.20    6.62
 -12  -3  16  -20.66    7.85
  12   3 -16   30.46    9.31
 -11  -3  16  -12.93   10.55
  11   3 -16   20.43   10.79
 -10  -3  16   -6.48   15.28
  10   3 -16    5.37   15.38
  -9  -3  16   19.46   18.16
   9   3 -16   33.70   22.23
  -2   3  16  -24.00   34.18
  -1   3  16  -22.27   25.55
   1  -3 -16    5.58   22.96
   0   3  16   56.65   22.17
   0  -3 -16   -9.38   18.43
  -1  -3 -16    9.90   16.22
   1   3  16  -25.50   17.42
   2   3  16  -18.89   14.20
  -2  -3 -16   38.24   13.76
  -3  -3 -16  -21.28   11.24
   3   3  16    0.89   12.50
  -4  -3 -16   -0.83   10.20
   4   3  16   -6.55   11.28
  -5  -3 -16   -5.00    9.25
   5   3  16   -9.63    9.50
  -6  -3 -16   11.70    8.79
   6   3  16    0.67    8.70
  -7  -3 -16   30.14    8.14
   7   3  16   13.96    8.20
  16   4 -16    9.32    4.79
 -16  -4  16    2.62    5.48
  15   4 -16    7.00    5.23
 -15  -4  16   -4.00    5.19
  14   4 -16   -1.71    5.02
 -14  -4  16    4.64    5.51
  13   4 -16   -0.20    5.57
 -13  -4  16   -4.56    6.00
  12   4 -16   -0.22    6.97
 -12  -4  16   -3.80    6.88
 -11  -4  16    1.53    7.69
  11   4 -16   18.44    8.57
  10   4 -16   10.18    9.54
 -10  -4  16    6.28    9.56
  -9  -4  16    7.55   13.17
   9   4 -16   -1.15   12.60
  -8  -4  16   23.59   17.52
   8   4 -16   55.02   21.19
  -4   4  16   50.83   31.85
  -3   4  16    7.54   24.49
   3  -4 -16   -3.83   20.08
   2  -4 -16   -4.52   16.75
  -2   4  16   20.95   19.78
   1  -4 -16   18.00   14.56
  -1   4  16    7.06   16.90
   0   4  16   -3.78   13.78
   0  -4 -16   23.20   12.51
  -1  -4 -16    1.31   10.62
   1   4  16    0.86   11.98
  -2  -4 -16  -16.88    9.29
   2   4  16   -6.27   11.09
  -3  -4 -16    4.84    8.80
   3   4  16   -1.06    9.67
  -4  -4 -16   -1.36    7.81
   4   4  16   17.24    8.60
  -5  -4 -16    0.62    7.39
   5   4  16   13.32    8.21
   6   4  16   -1.45    7.00
  -6  -4 -16    9.38    7.08
 -13  -5  16    2.86    5.28
  13   5 -16   -7.94    4.76
  12   5 -16    6.64    5.46
 -12  -5  16    6.89    5.97
  11   5 -16   -3.74    6.30
 -11  -5  16   12.95    6.67
 -10  -5  16   -5.30    6.93
  10   5 -16  -16.16    7.63
   9   5 -16   10.29    8.96
  -9  -5  16  -18.17    7.97
  -8  -5  16    1.72   11.17
   8   5 -16    9.80   11.40
  -7  -5  16    8.12   16.32
   7   5 -16   35.02   17.15
   6   5 -16   15.65   22.66
  -6   5  16   34.36   29.35
  -5   5  16   -3.55   22.76
   5  -5 -16  -35.46   17.20
  -4   5  16    9.03   18.68
   4  -5 -16    4.99   14.90
   3  -5 -16   -1.64   13.00
  -3   5  16  -22.24   14.91
  -2   5  16   15.69   13.14
   2  -5 -16   18.21   11.16
   1  -5 -16    2.52    9.46
  -1   5  16   -2.05   11.95
   0  -5 -16   -0.78    8.94
   0   5  16   12.67   10.97
  -1  -5 -16    3.26    8.04
   1   5  16   -4.68    9.51
  -2  -5 -16   11.69    7.22
   2   5  16  -18.62    8.13
  -3  -5 -16   -8.09    6.27
   3   5  16   -5.58    7.64
  -9  -6  16   -2.24    6.05
   8   6 -16    5.00    7.94
  -8   6  16   -6.56   26.46
  -7  -6  16   -0.42   10.41
   7   6 -16   14.30   10.60
  -7   6  16  -25.39   20.17
   7  -6 -16    2.15   15.72
  -6  -6  16  -21.54   14.56
   6   6 -16    2.45   15.51
   6  -6 -16    4.24   13.01
  -6   6  16    0.57   16.97
   5   6 -16   24.31   22.74
   5  -6 -16   28.62   11.91
  -5   6  16  -21.50   14.04
  -4   6  16   35.90   13.47
   4  -6 -16   15.37    9.88
   3  -6 -16  -11.85    8.29
  -3   6  16   -1.96   11.71
   2  -6 -16    9.16    8.18
  -2   6  16  -13.83   10.06
  18   0 -17    8.62    6.58
 -18   0  17    2.44    7.79
 -17   0  17   -4.56    8.00
  17   0 -17  -11.24    7.40
  16   0 -17    3.14    8.96
 -16   0  17   -2.85    9.81
 -15   0  17   -0.50   12.69
  15   0 -17  -30.18   10.48
 -14   0  17   10.64   17.90
  14   0 -17    1.57   15.67
  13   0 -17  -26.89   21.55
   5   0  17   -1.02   27.61
   6   0  17   11.84   22.33
  -6   0 -17  -37.03   21.09
  -7   0 -17   -4.43   18.81
   7   0  17  -16.72   17.38
  -8   0 -17   18.20   15.74
   8   0  17  -28.34   14.42
 -18   1  17  -10.94    8.36
  18   1 -17    1.81    5.25
 -18  -1  17   15.21    6.71
  18  -1 -17   20.88    8.43
  17  -1 -17    6.16    8.69
 -17  -1  17   -5.32    7.38
 -17   1  17  -15.32   10.36
 -16  -1  17  -13.64    7.59
 -16   1  17   36.19   14.58
  16   1 -17   -5.08    7.76
  16  -1 -17    8.50   11.58
  15   1 -17   -9.09    8.39
 -15   1  17  -28.79   17.42
  15  -1 -17   -2.33   17.31
 -15  -1  17  -12.43    9.22
  14  -1 -17   18.30   21.31
 -14  -1  17   20.07   12.59
  14   1 -17   13.84   11.23
 -13  -1  17  -10.02   16.50
  13   1 -17    2.92   15.31
  12   1 -17   23.38   22.47
   3   1  17   36.53   30.16
  -3  -1 -17   59.58   28.54
  -4  -1 -17  -23.05   22.53
   4   1  17  -12.28   22.30
   5   1  17  -14.10   17.98
  -5  -1 -17  -28.33   17.67
  -6  -1 -17   -5.64   15.21
   6   1  17    1.23   15.83
   7  -1  17   56.61   27.56
   7   1  17  -34.04   12.36
  -7  -1 -17    7.76   13.59
   8  -1  17  -30.39   20.51
  -8   1 -17  -17.17   21.08
  18   2 -17   -6.19    4.70
 -18  -2  17  -10.80    5.53
 -18   2  17   -9.75   11.17
  18  -2 -17   -6.58    9.24
 -17   2  17   -8.84   14.50
 -17  -2  17    0.45    6.32
  17  -2 -17  -17.92   12.27
 -16   2  17   45.40   18.72
  16  -2 -17   26.13   18.74
  16   2 -17    0.45    6.35
 -16  -2  17    6.03    7.03
 -15  -2  17   -8.40    8.12
  15   2 -17    3.75    7.65
 -14  -2  17    1.85    8.71
  14   2 -17   -2.66    8.34
 -13  -2  17    2.46   11.26
  13   2 -17   16.48   10.52
 -12  -2  17   60.70   17.21
  12   2 -17   26.35   14.87
 -11  -2  17   61.66   18.67
  11   2 -17   17.33   22.42
   1   2  17   -4.74   28.15
  -1  -2 -17   32.21   25.63
  -2  -2 -17   18.94   20.72
   2   2  17  -11.83   22.23
  -3  -2 -17  -17.72   17.51
   3   2  17    9.53   18.98
   4   2  17   -4.74   15.98
  -4  -2 -17    1.21   15.22
   5   2  17   10.42   13.97
  -5  -2 -17   10.19   13.07
  -6  -2 -17   20.13   11.55
   6   2  17   -4.75   11.84
  -7  -2 -17   21.25   10.92
   7   2  17  -10.09   10.53
  16   3 -17    7.90    4.98
 -16  -3  17   -9.57    5.89
  15   3 -17   11.79    6.49
 -15  -3  17    1.40    6.76
 -14  -3  17   13.40    7.86
  14   3 -17    3.91    7.31
 -13  -3  17   23.63    8.53
  13   3 -17   -0.57    8.69
  12   3 -17    7.60   10.04
 -12  -3  17   22.97   10.46
 -11  -3  17   31.31   14.91
  11   3 -17   43.30   14.11
 -10  -3  17  -11.00   17.65
  10   3 -17  -32.68   19.75
  -2   3  17   11.45   36.25
  -1   3  17    2.72   27.64
   1  -3 -17  -54.43   22.95
   0   3  17  -41.60   21.50
   0  -3 -17  -24.29   19.13
  -1  -3 -17    7.23   16.36
   1   3  17    0.65   18.81
   2   3  17  -33.65   15.93
  -2  -3 -17    3.50   14.25
   3   3  17  -36.45   12.96
  -3  -3 -17   -8.30   12.39
  -4  -3 -17  -12.93   10.14
   4   3  17    7.35   12.05
  -5  -3 -17   14.20   10.19
   5   3  17   44.10   11.39
   6   3  17   22.11    9.88
 -14  -4  17    9.37    6.26
  14   4 -17    2.15    5.92
  13   4 -17   19.60    7.10
 -13  -4  17   12.53    7.32
 -12  -4  17   12.50    7.67
  12   4 -17   21.50    8.50
  11   4 -17   -9.84    8.99
 -11  -4  17   -4.82    9.26
 -10  -4  17   30.37   13.11
  10   4 -17    2.33   11.60
  -9  -4  17  -16.15   16.57
   9   4 -17   59.14   18.77
   8   4 -17   -2.23   22.95
  -4   4  17  -42.15   32.99
  -3   4  17  -13.78   25.67
   3  -4 -17  -41.85   20.37
  -2   4  17   22.38   22.01
   2  -4 -17  -42.47   17.05
   1  -4 -17   16.53   15.36
  -1   4  17    3.76   17.83
   0  -4 -17   33.97   14.04
   0   4  17   22.33   15.66
  -1  -4 -17   45.16   12.00
   1   4  17    4.29   12.86
  -2  -4 -17   12.48   10.03
   2   4  17  -24.80   11.36
  -3  -4 -17   -3.35    9.00
   3   4  17    2.43   10.45
  -4  -4 -17   10.53    8.65
   4   4  17  -14.99    8.98
 -11  -5  17   -0.26    6.91
  11   5 -17   -8.17    7.79
  10   5 -17  -19.06    8.35
 -10  -5  17   -7.53    8.30
  -9  -5  17   12.56   11.21
   9   5 -17    1.13   11.24
  -8  -5  17   -0.64   15.63
   8   5 -17   32.96   15.87
   7   5 -17  -20.94   22.79
  -6   5  17  -44.61   30.25
  -5   5  17  -33.37   24.59
   5  -5 -17   11.78   18.94
  -4   5  17   -4.12   20.54
   4  -5 -17    2.13   15.34
  -3   5  17   26.95   17.75
   3  -5 -17   -3.08   13.47
  -2   5  17   14.42   14.11
   1  -5 -17   -3.41    9.97
  -1   5  17    4.15   12.53
   0  -5 -17   -8.76    8.89
   0   5  17  -28.94   10.41
  17   0 -18    4.73    8.87
 -17   0  18   14.71    9.97
 -16   0  18    1.55   12.35
  16   0 -18   28.60   11.56
 -15   0  18  -36.90   16.40
  14   0 -18    6.68   22.03
   5   0  18  -13.77   29.03
   6   0  18   47.39   23.50
  -6   0 -18  -23.23   22.45
 -17  -1  18   17.88    8.05
 -17   1  18   30.77   13.98
  17   1 -18   -3.49    7.84
  17  -1 -18    4.28   11.19
  16   1 -18    4.84    8.58
 -16   1  18   36.53   18.94
  16  -1 -18  -17.38   16.09
 -16  -1  18  -10.69    9.04
  15  -1 -18   22.96   21.34
 -15  -1  18  -28.02   11.37
  15   1 -18    6.46   10.69
 -14  -1  18   -2.77   16.32
  14   1 -18    0.50   15.12
 -13  -1  18   74.84   18.85
  13   1 -18   12.33   21.01
   3   1  18  -70.09   29.01
   4   1  18   -6.44   24.25
  -4  -1 -18   21.30   21.87
   5   1  18   -7.90   19.41
  -5  -1 -18   49.23   19.47
  -6  -1 -18   44.78   17.15
   6   1  18  -20.19   16.27
  16  -2 -18   13.26   20.31
 -16  -2  18   11.77    7.26
  16   2 -18    6.09    7.63
 -15  -2  18   -0.33    8.74
  15   2 -18   -3.78    7.79
 -14  -2  18    0.41   10.71
  14   2 -18   17.41   10.77
 -13  -2  18  -32.14   14.69
  13   2 -18    3.28   14.39
 -12  -2  18    4.44   18.10
  12   2 -18   -7.01   20.65
   1   2  18    5.36   29.38
  -2  -2 -18  -23.98   20.64
   2   2  18   21.31   23.71
  -3  -2 -18   11.47   18.57
   3   2  18   32.08   20.30
   4   2  18   -2.70   16.91
  -4  -2 -18   -1.35   15.62
   5   2  18    0.59   14.47
  -5  -2 -18   20.73   14.08
 -15  -3  18   -0.28    7.50
  15   3 -18   21.21    7.43
 -14  -3  18  -10.21    8.09
  14   3 -18  -13.31    8.66
  13   3 -18   20.07   10.33
 -13  -3  18   13.14   10.26
 -12  -3  18  -30.76   12.57
  12   3 -18    1.28   12.75
 -11  -3  18  -13.03   17.45
  11   3 -18    3.86   19.46
  10   3 -18  -34.16   22.04
  -1   3  18   35.92   29.26
   0  -3 -18    4.27   20.35
   0   3  18   12.80   22.73
  -1  -3 -18   19.19   17.60
   1   3  18  -41.94   18.74
   2   3  18  -34.48   15.92
  -2  -3 -18  -18.32   14.07
   3   3  18   -2.83   14.51
  -3  -3 -18    5.79   12.81
  12   4 -18   -0.63    9.08
 -12  -4  18   12.78    9.24
 -11  -4  18  -24.60   11.22
  11   4 -18    1.61   11.98
 -10  -4  18   43.60   17.76
  10   4 -18    4.37   16.25
   9   4 -18  -28.85   22.87
  -3   4  18   -9.77   27.87
   3  -4 -18  -23.65   21.90
   2  -4 -18  -23.10   18.32
  -2   4  18   21.21   23.31
  -1   4  18  -27.51   19.13
   1  -4 -18  -25.00   15.94
   0   4  18  -43.03   15.89
   0  -4 -18  -24.73   12.89
   1   4  18  -25.57   13.50
  -1  -4 -18   -0.56   11.64
 -16   0  19  -38.09   15.29
  16   0 -19   -3.15   14.03
  15   0 -19   17.42   21.05
 -15  -1  19    0.70   15.65
  15   1 -19   13.23   14.13
 -14  -1  19   39.84   18.36
  14   1 -19  -30.71   19.94
  13   1 -19    0.80   22.96
   3   1  19   -9.97   30.31
 -14  -2  19   -8.60   13.59
  14   2 -19    3.27   13.05
 -13  -2  19   -9.37   16.28
  13   2 -19   32.19   19.24
  12   2 -19    9.70   22.68
   1   2  19   86.67   32.37
   2   2  19   41.75   25.81
  -2  -2 -19   43.74   22.97
 -13  -3  19   22.65   12.66
  13   3 -19    9.41   12.03
 -12  -3  19   15.08   16.90
  12   3 -19   31.88   17.12
  11   3 -19  -14.61   22.44
  -1   3  19   48.51   30.84
   0   3  19   12.44   24.53
   0  -3 -19   -6.70   20.68
   0   0   0    0.00    0.00




TITL exp_2056_exp_2057 in P2(1)/c
REM P2(1)/c (#14 in standard setting)
CELL 0.02510  17.606668   7.885189  19.627421  90.0000 106.2897  90.0000
ZERR    4.00   0.713948   0.252215   0.371685   0.0000   1.6725   0.0000
LATT  1
SYMM -x, y+1/2,-z+1/2
REM SFAC C H N O Cl
REM ED SFAC according to Peng (1999)
SFAC C 0.136 0.373 0.548 3.281 1.227 13.046 0.597 41.020 0 0 0 0 0.75 6.000
SFAC H 0.037 0.561 0.127 3.791 0.236 13.556 0.129 37.723 0 0 0 0 0.32 1.000
SFAC N 0.137 0.329 0.534 2.673 1.086 10.316 0.455 32.763 0 0 0 0 0.71 7.000
SFAC O 0.143 0.305 0.510 2.268 0.937 8.262 0.392 25.665 0 0 0 0 0.63 8.000
SFAC CL 0.340 0.338 0.891 2.619 2.388 11.068 1.238 33.538 0 0 0 0 0.99 17.000
UNIT 104.00 24.00 8.00 16.00 32.00
TREF
HKLF 4
END
_computing_structure_solution     'SHELXT 2018/2 (Sheldrick, 2018)'
_computing_structure_solution     'SHELXT 2018/2 (Sheldrick, 2018)'
_computing_structure_solution     'SHELXT 2018/2 (Sheldrick, 2018)'
;
_shelx_hkl_checksum                91030
_olex2_submission_special_instructions  'No special instructions were received'
_oxdiff_exptl_absorpt_empirical_details
;
Empirical correction (ABSPACK) includes:
- Absorption correction using spherical harmonics
- Frame scaling
;
_oxdiff_exptl_absorpt_empirical_full_max  5.619
_oxdiff_exptl_absorpt_empirical_full_min  0.432
