data_exp_2586
_audit_creation_date               2024-03-21
_audit_creation_method
;
Olex2 1.5
(compiled 2024.02.16 svn.r378c4104 for OlexSys, GUI svn.r6928)
;
_shelx_SHELXL_version_number       '2018/3'
_audit_contact_author_address      ?
_audit_contact_author_email        ?
_audit_contact_author_name         ''
_audit_contact_author_phone        ?
_publ_contact_author_id_orcid      ?
_publ_section_references
;
Dolomanov, O.V., Bourhis, L.J., Gildea, R.J, Howard, J.A.K. & Puschmann, H.
 (2009), J. Appl. Cryst. 42, 339-341.

Sheldrick, G.M. (2015). Acta Cryst. C71, 3-8.
;
_chemical_name_common              ?
_chemical_name_systematic          ?
_chemical_formula_moiety           'Al4.8 B4 Li Mn3 O8'
_chemical_formula_sum              'Al4.80 B4 Li Mn3 O8'
_chemical_formula_weight           318.15
_chemical_melting_point            ?
loop_
  _atom_type_symbol
  _atom_type_description
  _atom_type_scat_dispersion_real
  _atom_type_scat_dispersion_imag
  _atom_type_scat_source
 'Al' 'Al' 0.0000 0.0000 'International Tables Vol C Tables 4.2.6.8 and 6.1.1.4'
 'B' 'B' 0.0000 0.0000 'International Tables Vol C Tables 4.2.6.8 and 6.1.1.4'
 'Mn' 'Mn' 0.0000 0.0000 'International Tables Vol C Tables 4.2.6.8 and 6.1.1.4'
 'O' 'O' 0.0000 0.0000 'International Tables Vol C Tables 4.2.6.8 and 6.1.1.4'
 'Li' 'Li' 0.0000 0.0000 'International Tables Vol C Tables 4.2.6.8 and 6.1.1.4'

_shelx_space_group_comment
;
The symmetry employed for this shelxl refinement is uniquely defined
by the following loop, which should always be used as a source of
symmetry information in preference to the above space-group names.
They are only intended as comments.
;
_space_group_crystal_system        'orthorhombic'
_space_group_IT_number             70
_space_group_name_H-M_alt          'F d d d'
_space_group_name_Hall             '-F 2uv 2vw'
loop_
  _space_group_symop_operation_xyz
 'x, y, z'
 '-x+3/4, -y+3/4, z'
 '-x+3/4, y, -z+3/4'
 'x, -y+3/4, -z+3/4'
 'x, y+1/2, z+1/2'
 '-x+3/4, -y+5/4, z+1/2'
 '-x+3/4, y+1/2, -z+5/4'
 'x, -y+5/4, -z+5/4'
 'x+1/2, y, z+1/2'
 '-x+5/4, -y+3/4, z+1/2'
 '-x+5/4, y, -z+5/4'
 'x+1/2, -y+3/4, -z+5/4'
 'x+1/2, y+1/2, z'
 '-x+5/4, -y+5/4, z'
 '-x+5/4, y+1/2, -z+3/4'
 'x+1/2, -y+5/4, -z+3/4'
 '-x, -y, -z'
 'x-3/4, y-3/4, -z'
 'x-3/4, -y, z-3/4'
 '-x, y-3/4, z-3/4'
 '-x, -y+1/2, -z+1/2'
 'x-3/4, y-1/4, -z+1/2'
 'x-3/4, -y+1/2, z-1/4'
 '-x, y-1/4, z-1/4'
 '-x+1/2, -y, -z+1/2'
 'x-1/4, y-3/4, -z+1/2'
 'x-1/4, -y, z-1/4'
 '-x+1/2, y-3/4, z-1/4'
 '-x+1/2, -y+1/2, -z'
 'x-1/4, y-1/4, -z'
 'x-1/4, -y+1/2, z-3/4'
 '-x+1/2, y-1/4, z-3/4'

_cell_length_a                     12.59(11)
_cell_length_b                     13.36(13)
_cell_length_c                     18.29(15)
_cell_angle_alpha                  90
_cell_angle_beta                   90
_cell_angle_gamma                  90
_cell_volume                       3075(47)
_cell_formula_units_Z              16
_cell_measurement_reflns_used      1003
_cell_measurement_temperature      293(2)
_cell_measurement_theta_max        1.0300
_cell_measurement_theta_min        0.1120
_shelx_estimated_absorpt_T_max     ?
_shelx_estimated_absorpt_T_min     ?
_exptl_absorpt_coefficient_mu      0.000
_exptl_absorpt_correction_T_max    1.00000
_exptl_absorpt_correction_T_min    0.16812
_exptl_absorpt_correction_type     multi-scan
_exptl_absorpt_process_details
;
CrysAlisPro 1.171.43.65a (Rigaku Oxford Diffraction, 2023)
Empirical absorption correction using spherical harmonics,
implemented in SCALE3 ABSPACK scaling algorithm.
;
_exptl_absorpt_special_details     ?
_exptl_crystal_colour              ?
_exptl_crystal_density_diffrn      2.749
_exptl_crystal_density_meas        ?
_exptl_crystal_density_method      ?
_exptl_crystal_description         ?
_exptl_crystal_F_000               1297
_exptl_crystal_size_max            ?
_exptl_crystal_size_mid            ?
_exptl_crystal_size_min            ?
_exptl_transmission_factor_max     ?
_exptl_transmission_factor_min     ?
_diffrn_reflns_av_R_equivalents    0.2662
_diffrn_reflns_av_unetI/netI       0.2265
_diffrn_reflns_Laue_measured_fraction_full  0.866
_diffrn_reflns_Laue_measured_fraction_max  0.866
_diffrn_reflns_limit_h_max         17
_diffrn_reflns_limit_h_min         -16
_diffrn_reflns_limit_k_max         17
_diffrn_reflns_limit_k_min         -18
_diffrn_reflns_limit_l_max         26
_diffrn_reflns_limit_l_min         -26
_diffrn_reflns_number              3258
_diffrn_reflns_point_group_measured_fraction_full  0.866
_diffrn_reflns_point_group_measured_fraction_max  0.866
_diffrn_reflns_theta_full          0.863
_diffrn_reflns_theta_max           1.027
_diffrn_reflns_theta_min           0.133
_diffrn_ambient_temperature        293(2)
_diffrn_detector_area_resol_mean   10.0000
_diffrn_detector_type              'HyPix3000 fast'
_diffrn_measured_fraction_theta_full  0.866
_diffrn_measured_fraction_theta_max  0.866
_diffrn_measurement_details
;
List of Runs (angles in degrees, time in seconds):

  # Type    Start    End  Width  t~exp~   \w     \q     \k     \f   Frames
--------------------------------------------------------------------------
  1  \w    -50.00  25.00   0.50    1.00    --    0.00   0.00   0.00  150
;
_diffrn_measurement_device         'electron diffractometer'
_diffrn_measurement_device_type   
 'XtaLAB Synergy-ED, HyPix3000 fast, electron source at 200keV'
_diffrn_measurement_method         '\w scans'
_diffrn_radiation_type             ?
_diffrn_radiation_wavelength       0.0251
_diffrn_source                     ?
_reflns_Friedel_coverage           0.000
_reflns_Friedel_fraction_full      .
_reflns_Friedel_fraction_max       .
_reflns_number_gt                  709
_reflns_number_total               1020
_reflns_special_details
;
 Reflections were merged by SHELXL according to the crystal
 class for the calculation of statistics and refinement.
 
 _reflns_Friedel_fraction is defined as the number of unique
 Friedel pairs measured divided by the number that would be
 possible theoretically, ignoring centric projections and
 systematic absences.
;
_reflns_threshold_expression       'I > 2\s(I)'
_computing_cell_refinement         'CrysAlisPro 1.171.43.65a (Rigaku OD, 2023)'
_computing_data_collection        
 'CrysAlisPro system (CCD 43.65a 64-bit (release 18-03-2023))'
_computing_data_reduction          'CrysAlisPro 1.171.43.65a (Rigaku OD, 2023)'
_computing_molecular_graphics      'Olex2 1.5 (Dolomanov et al., 2009)'
_computing_publication_material    'Olex2 1.5 (Dolomanov et al., 2009)'
_computing_structure_refinement    'SHELXL 2018/3 (Sheldrick, 2015)'
_computing_structure_solution      'SHELXT 2018/2 (Sheldrick, 2018)'
_refine_diff_density_max           1.500
_refine_diff_density_min           -0.515
_refine_diff_density_rms           0.178
_refine_ls_extinction_coef         1948(238)
_refine_ls_extinction_expression  
 'Fc^*^=kFc[1+0.001xFc^2^\l^3^/sin(2\q)]^-1/4^'
_refine_ls_extinction_method       'SHELXL-2018/3 (Sheldrick 2018)'
_refine_ls_goodness_of_fit_ref     1.685
_refine_ls_hydrogen_treatment      undef
_refine_ls_matrix_type             full
_refine_ls_number_parameters       40
_refine_ls_number_reflns           1020
_refine_ls_number_restraints       0
_refine_ls_R_factor_all            0.2699
_refine_ls_R_factor_gt             0.2319
_refine_ls_restrained_S_all        1.685
_refine_ls_shift/su_max            0.531
_refine_ls_shift/su_mean           0.014
_refine_ls_structure_factor_coef   Fsqd
_refine_ls_weighting_details      
 'w=1/[\s^2^(Fo^2^)+(0.2000P)^2^] where P=(Fo^2^+2Fc^2^)/3'
_refine_ls_weighting_scheme        calc
_refine_ls_wR_factor_gt            0.5063
_refine_ls_wR_factor_ref           0.5291
_refine_special_details            ?
_olex2_refinement_description
;
1. Shared sites
{Al07, Mn2}
{Al01, Mn3}
{Al04, Mn1}
{Al06, Mn4}
{Al05, Mn5}
2. Uiso/Uaniso restraints and constraints
Uiso(Al07) = Uiso(Mn2)
Uiso(Al01) = Uiso(Mn3)
Uiso(Al04) = Uiso(Mn1)
Uiso(Al06) = Uiso(Mn4)
Uiso(Al05) = Uiso(Mn5)
3. Others
 Fixed Sof: Al01(0.4) Al04(0.8) Al05(0.4) Al06(0.4) Al07(0.4) Mn2(0.2)
 Mn3(0.2) Mn1(0.2) Mn4(0.2) Mn5(0.2)
;
_atom_sites_solution_hydrogens     .
_atom_sites_solution_primary       ?
_atom_sites_solution_secondary     ?
loop_
  _atom_site_label
  _atom_site_type_symbol
  _atom_site_fract_x
  _atom_site_fract_y
  _atom_site_fract_z
  _atom_site_U_iso_or_equiv
  _atom_site_adp_type
  _atom_site_occupancy
  _atom_site_site_symmetry_order
  _atom_site_calc_flag
  _atom_site_refinement_flags_posn
  _atom_site_refinement_flags_adp
  _atom_site_refinement_flags_occupancy
  _atom_site_disorder_assembly
  _atom_site_disorder_group
 Al01 Al 0.500000 0.250000 0.250000 0.0148(16) Uiso 0.8 2 d S . P A 5
 Mn02 Mn 0.875000 0.375000 0.375000 0.025(2) Uiso 1 4 d S . P A .
 Mn03 Mn 0.375000 0.375000 0.375000 0.026(2) Uiso 1 4 d S . P A .
 Al04 Al 0.7346(4) 0.2686(4) 0.2471(2) 0.0037(12) Uiso 0.8 1 d . . P A 7
 Al05 Al 0.875000 0.1441(5) 0.375000 0.0134(15) Uiso 0.8 2 d S . P A 11
 Al06 Al 0.750000 0.500000 0.250000 0.0165(16) Uiso 0.8 2 d S . P A 9
 Al07 Al 0.6096(5) 0.375000 0.375000 0.0158(15) Uiso 0.8 2 d S . P A 3
 O008 O 0.7151(10) 0.3895(9) 0.3049(7) 0.028(3) Uiso 1 1 d . . . . .
 O009 O 0.4960(8) 0.3901(8) 0.3081(6) 0.023(2) Uiso 1 1 d . . . . .
 O00A O 0.7845(12) 0.3902(10) 0.1674(7) 0.038(3) Uiso 1 1 d . . . . .
 O00B O 0.6080(10) 0.2869(10) 0.1923(7) 0.032(3) Uiso 1 1 d . . . . .
 B00C B 0.3896(10) 0.2836(10) 0.1809(7) 0.011(3) Uiso 1 1 d . . . . .
 B00D B 0.8604(8) 0.2450(8) 0.3031(6) -0.001(2) Uiso 1 1 d . . . . .
 Mn2 Mn 0.6096(5) 0.375000 0.375000 0.0158(15) Uiso 0.4 2 d S . P A 4
 Mn3 Mn 0.500000 0.250000 0.250000 0.0148(16) Uiso 0.4 2 d S . P A 6
 Mn1 Mn 0.7346(4) 0.2686(4) 0.2471(2) 0.0037(12) Uiso 0.2 1 d . . P A 8
 Mn4 Mn 0.750000 0.500000 0.250000 0.0165(16) Uiso 0.4 2 d S . P A 10
 Mn5 Mn 0.875000 0.1441(5) 0.375000 0.0134(15) Uiso 0.4 2 d S . P A 12
 Li1 Li 0.875000 0.375000 0.1187(16) 0.007(6) Uiso 1 2 d S . P A .

_geom_special_details
;
 All esds (except the esd in the dihedral angle between two l.s. planes)
 are estimated using the full covariance matrix.  The cell esds are taken
 into account individually in the estimation of esds in distances, angles
 and torsion angles; correlations between esds in cell parameters are only
 used when they are defined by crystal symmetry.  An approximate (isotropic)
 treatment of cell esds is used for estimating esds involving l.s. planes.
;
loop_
  _geom_bond_atom_site_label_1
  _geom_bond_atom_site_label_2
  _geom_bond_distance
  _geom_bond_site_symmetry_2
  _geom_bond_publ_flag
 Al01 O009 2.153(19) 21_655 ?
 Al01 O009 2.153(19) . ?
 Al01 O00B 1.790(17) 21_655 ?
 Al01 O00B 1.790(17) . ?
 Al01 B00C 1.931(17) . ?
 Al01 B00C 1.931(17) 21_655 ?
 Mn02 B00D 2.186(18) . ?
 Mn02 B00D 2.186(18) 3_655 ?
 Mn02 B00D 2.186(18) 2_655 ?
 Mn02 B00D 2.186(18) 4 ?
 Mn03 O009 1.963(16) 4 ?
 Mn03 O009 1.963(16) . ?
 Mn03 O009 1.963(16) 3 ?
 Mn03 O009 1.963(16) 2 ?
 Al04 O008 1.945(19) . ?
 Al04 O009 1.997(19) 22_655 ?
 Al04 O00A 2.27(2) . ?
 Al04 O00B 1.898(18) . ?
 Al04 B00C 2.160(18) 21_655 ?
 Al04 B00D 1.911(17) . ?
 Al05 O00A 2.15(2) 22_655 ?
 Al05 O00A 2.15(2) 32_656 ?
 Al05 O00B 1.901(18) 22_655 ?
 Al05 O00B 1.901(18) 32_656 ?
 Al05 B00D 1.892(16) . ?
 Al05 B00D 1.892(16) 3_655 ?
 Al06 O008 1.838(17) . ?
 Al06 O008 1.838(17) 25_665 ?
 Al06 O00A 2.150(19) . ?
 Al06 O00A 2.150(19) 25_665 ?
 Al06 B00D 2.009(18) 26_565 ?
 Al06 B00D 2.009(18) 2_655 ?
 Al07 O008 1.856(17) . ?
 Al07 O008 1.856(17) 4 ?
 Al07 O009 1.893(17) . ?
 Al07 O009 1.893(17) 4 ?
 Al07 B00C 2.35(2) 21_655 ?
 Al07 B00C 2.35(2) 20_666 ?
 O008 Mn2 1.856(17) . ?
 O008 Mn1 1.945(19) . ?
 O008 Mn4 1.838(17) . ?
 O009 Mn2 1.893(17) . ?
 O009 Mn3 2.153(19) . ?
 O00A Mn1 2.27(2) . ?
 O00A Mn4 2.150(19) . ?
 O00A Li1 1.46(2) . ?
 O00B Mn3 1.790(17) . ?
 O00B Mn1 1.898(18) . ?
 B00C Mn3 1.931(17) . ?
 B00C Li1 1.53(2) 11_554 ?
 B00D Mn1 1.911(17) . ?
 B00D Mn5 1.892(16) . ?

loop_
  _geom_angle_atom_site_label_1
  _geom_angle_atom_site_label_2
  _geom_angle_atom_site_label_3
  _geom_angle
  _geom_angle_site_symmetry_1
  _geom_angle_site_symmetry_3
  _geom_angle_publ_flag
 O009 Al01 O009 180.0 . 21_655 ?
 O00B Al01 O009 94.0(6) 21_655 21_655 ?
 O00B Al01 O009 94.0(6) . . ?
 O00B Al01 O009 86.0(6) . 21_655 ?
 O00B Al01 O009 86.0(6) 21_655 . ?
 O00B Al01 O00B 180.0 . 21_655 ?
 O00B Al01 B00C 84.4(9) 21_655 . ?
 O00B Al01 B00C 95.6(9) . . ?
 O00B Al01 B00C 84.4(9) . 21_655 ?
 O00B Al01 B00C 95.6(9) 21_655 21_655 ?
 B00C Al01 O009 96.0(6) 21_655 21_655 ?
 B00C Al01 O009 84.0(6) 21_655 . ?
 B00C Al01 O009 84.0(6) . 21_655 ?
 B00C Al01 O009 96.0(6) . . ?
 B00C Al01 B00C 180.0 21_655 . ?
 B00D Mn02 B00D 106.0(9) 2_655 . ?
 B00D Mn02 B00D 170.3(6) 4 . ?
 B00D Mn02 B00D 74.8(9) 4 2_655 ?
 B00D Mn02 B00D 74.8(9) 3_655 . ?
 B00D Mn02 B00D 106.0(9) 4 3_655 ?
 B00D Mn02 B00D 170.3(6) 2_655 3_655 ?
 O009 Mn03 O009 168.2(7) 2 4 ?
 O009 Mn03 O009 78.3(9) 4 . ?
 O009 Mn03 O009 102.9(9) 2 . ?
 O009 Mn03 O009 78.3(9) 2 3 ?
 O009 Mn03 O009 102.9(9) 4 3 ?
 O009 Mn03 O009 168.2(7) 3 . ?
 O008 Al04 O009 175.8(5) . 22_655 ?
 O008 Al04 O00A 77.9(8) . . ?
 O008 Al04 B00C 81.1(7) . 21_655 ?
 O009 Al04 O00A 105.7(8) 22_655 . ?
 O009 Al04 B00C 94.7(6) 22_655 21_655 ?
 O00B Al04 O008 94.2(6) . . ?
 O00B Al04 O009 84.5(6) . 22_655 ?
 O00B Al04 O00A 78.5(7) . . ?
 O00B Al04 B00C 75.8(8) . 21_655 ?
 O00B Al04 B00D 177.8(6) . . ?
 B00C Al04 O00A 145.3(6) 21_655 . ?
 B00D Al04 O008 87.2(6) . . ?
 B00D Al04 O009 94.0(6) . 22_655 ?
 B00D Al04 O00A 103.4(6) . . ?
 B00D Al04 B00C 102.7(8) . 21_655 ?
 O00A Al05 O00A 177.2(8) 22_655 32_656 ?
 O00B Al05 O00A 81.6(6) 22_655 22_655 ?
 O00B Al05 O00A 81.6(6) 32_656 32_656 ?
 O00B Al05 O00A 96.3(6) 22_655 32_656 ?
 O00B Al05 O00A 96.3(6) 32_656 22_655 ?
 O00B Al05 O00B 82.2(11) 22_655 32_656 ?
 B00D Al05 O00A 81.8(5) 3_655 32_656 ?
 B00D Al05 O00A 100.2(6) 3_655 22_655 ?
 B00D Al05 O00A 81.8(6) . 22_655 ?
 B00D Al05 O00A 100.2(6) . 32_656 ?
 B00D Al05 O00B 176.3(5) 3_655 22_655 ?
 B00D Al05 O00B 94.3(9) 3_655 32_656 ?
 B00D Al05 O00B 94.3(9) . 22_655 ?
 B00D Al05 O00B 176.3(5) . 32_656 ?
 B00D Al05 B00D 89.2(10) 3_655 . ?
 O008 Al06 O008 180.0 25_665 . ?
 O008 Al06 O00A 96.7(8) 25_665 . ?
 O008 Al06 O00A 83.3(8) 25_665 25_665 ?
 O008 Al06 O00A 83.3(8) . . ?
 O008 Al06 O00A 96.7(8) . 25_665 ?
 O008 Al06 B00D 91.6(6) . 26_565 ?
 O008 Al06 B00D 88.4(6) 25_665 26_565 ?
 O008 Al06 B00D 91.6(6) 25_665 2_655 ?
 O008 Al06 B00D 88.4(6) . 2_655 ?
 O00A Al06 O00A 180.0(5) 25_665 . ?
 B00D Al06 O00A 79.3(6) 26_565 . ?
 B00D Al06 O00A 100.7(6) 26_565 25_665 ?
 B00D Al06 O00A 100.7(6) 2_655 . ?
 B00D Al06 O00A 79.3(6) 2_655 25_665 ?
 B00D Al06 B00D 180.0(5) 26_565 2_655 ?
 O008 Al07 O008 88.6(11) . 4 ?
 O008 Al07 O009 94.8(9) . . ?
 O008 Al07 O009 176.5(5) . 4 ?
 O008 Al07 O009 176.5(5) 4 . ?
 O008 Al07 O009 94.8(9) 4 4 ?
 O008 Al07 B00C 101.7(6) . 20_666 ?
 O008 Al07 B00C 101.7(6) 4 21_655 ?
 O008 Al07 B00C 77.9(6) . 21_655 ?
 O008 Al07 B00C 77.9(6) 4 20_666 ?
 O009 Al07 O009 81.8(10) 4 . ?
 O009 Al07 B00C 100.8(6) . 20_666 ?
 O009 Al07 B00C 100.8(6) 4 21_655 ?
 O009 Al07 B00C 79.5(6) 4 20_666 ?
 O009 Al07 B00C 79.5(6) . 21_655 ?
 B00C Al07 B00C 179.5(7) 20_666 21_655 ?
 Mn03 O009 Al01 103.7(6) . . ?
 Mn03 O009 Al04 110.4(6) . 26_565 ?
 Mn03 O009 Mn3 103.7(6) . . ?
 Al07 O009 Mn03 100.0(9) . . ?
 Mn2 O009 Mn03 100.0(9) . . ?
 Li1 O00A Al04 120.5(10) . . ?
 Li1 O00A Al05 120.8(13) . 26_565 ?
 Li1 O00A Al06 132.9(10) . . ?
 Li1 O00A Mn1 120.5(10) . . ?
 Li1 O00A Mn4 132.9(10) . . ?
 Li1 B00C Al01 131.2(9) 11_554 . ?
 Li1 B00C Al04 122.1(9) 11_554 21_655 ?
 Li1 B00C Al07 117.5(13) 11_554 21_655 ?
 Li1 B00C Mn3 131.2(9) 11_554 . ?
 Al04 B00D Mn02 105.1(6) . . ?
 Al05 B00D Mn02 98.0(8) . . ?
 Al06 B00D Mn02 101.0(5) 2_655 . ?
 Mn1 B00D Mn02 105.1(6) . . ?
 Mn5 B00D Mn02 98.0(8) . . ?
 O008 Mn2 O008 88.6(11) . 4 ?
 O008 Mn2 O009 176.5(5) 4 . ?
 O008 Mn2 O009 176.5(5) . 4 ?
 O008 Mn2 O009 94.8(9) 4 4 ?
 O008 Mn2 O009 94.8(9) . . ?
 O008 Mn2 B00C 101.7(6) 4 21_655 ?
 O008 Mn2 B00C 101.7(6) . 20_666 ?
 O008 Mn2 B00C 77.9(6) . 21_655 ?
 O008 Mn2 B00C 77.9(6) 4 20_666 ?
 O009 Mn2 O009 81.8(10) 4 . ?
 O009 Mn2 B00C 100.8(6) 4 21_655 ?
 O009 Mn2 B00C 100.8(6) . 20_666 ?
 O009 Mn2 B00C 79.5(6) 4 20_666 ?
 O009 Mn2 B00C 79.5(6) . 21_655 ?
 B00C Mn2 B00C 179.5(7) 20_666 21_655 ?
 O009 Mn3 O009 180.0 . 21_655 ?
 O00B Mn3 O009 86.0(6) . 21_655 ?
 O00B Mn3 O009 94.0(6) 21_655 21_655 ?
 O00B Mn3 O009 86.0(6) 21_655 . ?
 O00B Mn3 O009 94.0(6) . . ?
 O00B Mn3 O00B 180.0 . 21_655 ?
 O00B Mn3 B00C 84.4(9) 21_655 . ?
 O00B Mn3 B00C 95.6(9) 21_655 21_655 ?
 O00B Mn3 B00C 95.6(9) . . ?
 O00B Mn3 B00C 84.4(9) . 21_655 ?
 B00C Mn3 O009 96.0(6) 21_655 21_655 ?
 B00C Mn3 O009 84.0(6) 21_655 . ?
 B00C Mn3 O009 84.0(6) . 21_655 ?
 B00C Mn3 O009 96.0(6) . . ?
 B00C Mn3 B00C 180.0 21_655 . ?
 O008 Mn1 O009 175.8(5) . 22_655 ?
 O008 Mn1 O00A 77.9(8) . . ?
 O008 Mn1 B00C 81.1(7) . 21_655 ?
 O009 Mn1 O00A 105.7(8) 22_655 . ?
 O009 Mn1 B00C 94.7(6) 22_655 21_655 ?
 O00B Mn1 O008 94.2(6) . . ?
 O00B Mn1 O009 84.5(6) . 22_655 ?
 O00B Mn1 O00A 78.5(7) . . ?
 O00B Mn1 B00C 75.8(8) . 21_655 ?
 O00B Mn1 B00D 177.8(6) . . ?
 B00C Mn1 O00A 145.3(6) 21_655 . ?
 B00D Mn1 O008 87.2(6) . . ?
 B00D Mn1 O009 94.0(6) . 22_655 ?
 B00D Mn1 O00A 103.4(6) . . ?
 B00D Mn1 B00C 102.7(8) . 21_655 ?
 O008 Mn4 O008 180.0 25_665 . ?
 O008 Mn4 O00A 83.3(8) . . ?
 O008 Mn4 O00A 96.7(8) 25_665 . ?
 O008 Mn4 O00A 83.3(8) 25_665 25_665 ?
 O008 Mn4 O00A 96.7(8) . 25_665 ?
 O008 Mn4 B00D 91.6(6) . 26_565 ?
 O008 Mn4 B00D 88.4(6) . 2_655 ?
 O008 Mn4 B00D 88.4(6) 25_665 26_565 ?
 O008 Mn4 B00D 91.6(6) 25_665 2_655 ?
 O00A Mn4 O00A 180.0(5) 25_665 . ?
 B00D Mn4 O00A 79.3(6) 2_655 25_665 ?
 B00D Mn4 O00A 100.7(6) 26_565 25_665 ?
 B00D Mn4 O00A 79.3(6) 26_565 . ?
 B00D Mn4 O00A 100.7(6) 2_655 . ?
 B00D Mn4 B00D 180.0(5) 26_565 2_655 ?
 O00A Mn5 O00A 177.2(8) 22_655 32_656 ?
 O00B Mn5 O00A 96.3(6) 32_656 22_655 ?
 O00B Mn5 O00A 96.3(6) 22_655 32_656 ?
 O00B Mn5 O00A 81.6(6) 32_656 32_656 ?
 O00B Mn5 O00A 81.6(6) 22_655 22_655 ?
 O00B Mn5 O00B 82.2(11) 22_655 32_656 ?
 B00D Mn5 O00A 100.2(6) 3_655 22_655 ?
 B00D Mn5 O00A 81.8(5) 3_655 32_656 ?
 B00D Mn5 O00A 100.2(6) . 32_656 ?
 B00D Mn5 O00A 81.8(6) . 22_655 ?
 B00D Mn5 O00B 94.3(9) 3_655 32_656 ?
 B00D Mn5 O00B 94.3(9) . 22_655 ?
 B00D Mn5 O00B 176.3(5) . 32_656 ?
 B00D Mn5 O00B 176.3(5) 3_655 22_655 ?
 B00D Mn5 B00D 89.2(10) 3_655 . ?
 O00A Li1 O00A 105(2) . 2_655 ?
 O00A Li1 B00C 112.2(8) 2_655 12_554 ?
 O00A Li1 B00C 110.1(8) . 12_554 ?
 O00A Li1 B00C 112.2(8) . 11_554 ?
 O00A Li1 B00C 110.1(8) 2_655 11_554 ?
 B00C Li1 B00C 107(2) 11_554 12_554 ?

loop_
  _geom_torsion_atom_site_label_1
  _geom_torsion_atom_site_label_2
  _geom_torsion_atom_site_label_3
  _geom_torsion_atom_site_label_4
  _geom_torsion
  _geom_torsion_site_symmetry_1
  _geom_torsion_site_symmetry_2
  _geom_torsion_site_symmetry_3
  _geom_torsion_site_symmetry_4
  _geom_torsion_publ_flag
 Mn02 B00D Mn5 O00A -100.4(6) . . . 22_655 ?
 Mn02 B00D Mn5 O00A 81.6(6) . . . 32_656 ?
 Mn02 B00D Mn5 O00B 178.8(5) . . . 22_655 ?
 Mn02 B00D Mn5 B00D 0.001(2) . . . 3_655 ?
 Mn03 O009 Mn2 O008 179.5(5) . . . . ?
 Mn03 O009 Mn2 O009 0.002(1) . . . 4 ?
 Mn03 O009 Mn2 B00C 102.7(6) . . . 21_655 ?
 Mn03 O009 Mn2 B00C -77.6(6) . . . 20_666 ?
 Al04 O00A Li1 O00A -60.8(8) . . . 2_655 ?
 Al04 O00A Li1 B00C 178.2(9) . . . 12_554 ?
 Al04 O00A Li1 B00C 59(2) . . . 11_554 ?
 Al05 O00A Li1 O00A -170.6(12) 26_565 . . 2_655 ?
 Al05 O00A Li1 B00C -51.1(17) 26_565 . . 11_554 ?
 Al05 O00A Li1 B00C 68.4(14) 26_565 . . 12_554 ?
 Al06 O00A Li1 O00A 60.3(12) . . . 2_655 ?
 Al06 O00A Li1 B00C -61(2) . . . 12_554 ?
 Al06 O00A Li1 B00C 179.8(10) . . . 11_554 ?
 O008 Al07 O009 Mn03 179.5(5) . . . . ?
 O009 Al07 O009 Mn03 0.002(1) 4 . . . ?
 O00A Al05 B00D Mn02 -100.4(6) 22_655 . . . ?
 O00A Al05 B00D Mn02 81.6(6) 32_656 . . . ?
 O00B Al05 B00D Mn02 178.8(5) 22_655 . . . ?
 B00C Al07 O009 Mn03 -77.6(6) 20_666 . . . ?
 B00C Al07 O009 Mn03 102.7(6) 21_655 . . . ?
 B00D Al05 B00D Mn02 0.001(0) 3_655 . . . ?
 Mn1 O00A Li1 O00A -60.8(8) . . . 2_655 ?
 Mn1 O00A Li1 B00C 59(2) . . . 11_554 ?
 Mn1 O00A Li1 B00C 178.2(9) . . . 12_554 ?
 Mn4 O00A Li1 O00A 60.3(12) . . . 2_655 ?
 Mn4 O00A Li1 B00C -61(2) . . . 12_554 ?
 Mn4 O00A Li1 B00C 179.8(10) . . . 11_554 ?

_shelx_res_file
;
TITL exp_2586_a.res in Fddd
    exp_2586.res
    created by SHELXL-2018/3 at 16:24:00 on 21-Mar-2024
REM Old TITL exp_2586 in Fmmm
REM SHELXT solution in Fddd: R1 0.288, Rweak 0.041, Alpha 0.197
REM <I/s> 1.696 for 64 systematic absences, Orientation as input
REM Formula found by SHELXT: Li2 B4 O8 Al7
CELL 0.0251 12.5886 13.3604 18.2855 90 90 90
ZERR 16 0.1127 0.1285 0.1459 0 0 0
LATT 4
SYMM 0.75-X,0.75-Y,+Z
SYMM 0.75-X,+Y,0.75-Z
SYMM +X,0.75-Y,0.75-Z
SFAC  Al 0.358 0.453 0.975 3.774 2.639 23.386 1.91 80.502 0 0 0 0 1.26 13
SFAC  B 0.130 0.418 0.52 3.921 1.377 16.663 0.767 51.751 0 0 0 0 0.85 5
SFAC  Mn 0.555 0.395 2.007 3.48 2.568 19.586 2.369 74.92 0 0 0 0 1.19 54.938
SFAC  O 0.143 0.305 0.51 2.268 0.937 8.262 0.392 25.665 0 0 0 0 0.63 8
SFAC  Li 0.120 0.591 0.395 6.111 1.379 36.767 1.389 117.031 0 0 0 0 1.33 6.941
UNIT 76.8 64 48 128 16

EADP Al07 Mn2
EADP Al01 Mn3
EADP Al04 Mn1
EADP Al06 Mn4
EADP Al05 Mn5
EXYZ Al07 Mn2
EXYZ Al01 Mn3
EXYZ Al04 Mn1
EXYZ Al06 Mn4
EXYZ Al05 Mn5

L.S. 10 0 0
PLAN  8
CONF
list 4
MORE -1
fmap 2 53
acta
REM <olex2.extras>
REM <HklSrc "%.\\exp_2586.hkl">
REM </olex2.extras>

WGHT    0.200000
EXTI 1947.543457
FVAR       0.77797
PART 5
AL01  1    0.500000    0.250000    0.250000    10.40000    0.01476
PART 0
MN02  3    0.875000    0.375000    0.375000    10.25000    0.02488
MN03  3    0.375000    0.375000    0.375000    10.25000    0.02595
PART 7
AL04  1    0.734622    0.268618    0.247114    10.80000    0.00370
PART 11
AL05  1    0.875000    0.144149    0.375000    10.40000    0.01343
PART 9
AL06  1    0.750000    0.500000    0.250000    10.40000    0.01650
PART 3
AL07  1    0.609639    0.375000    0.375000    10.40000    0.01582
PART 0
O008  4    0.715127    0.389513    0.304877    11.00000    0.02844
O009  4    0.495956    0.390081    0.308108    11.00000    0.02342
O00A  4    0.784506    0.390209    0.167352    11.00000    0.03789
O00B  4    0.608025    0.286910    0.192342    11.00000    0.03154
B00C  2    0.389571    0.283575    0.180890    11.00000    0.01063
B00D  2    0.860379    0.245040    0.303058    11.00000   -0.00100
PART 4
MN2   3    0.609639    0.375000    0.375000    10.20000    0.01582
PART 6
MN3   3    0.500000    0.250000    0.250000    10.20000    0.01476
PART 8
MN1   3    0.734622    0.268618    0.247114    10.20000    0.00370
PART 10
MN4   3    0.750000    0.500000    0.250000    10.20000    0.01650
PART 12
MN5   3    0.875000    0.144149    0.375000    10.20000    0.01343
PART 0
LI1   5    0.875000    0.375000    0.118708    10.50000    0.00709
HKLF 4




REM  exp_2586_a.res in Fddd
REM wR2 = 0.5291, GooF = S = 1.685, Restrained GooF = 1.685 for all data
REM R1 = 0.2319 for 709 Fo > 4sig(Fo) and 0.2699 for all 1020 data
REM 40 parameters refined using 0 restraints

END

WGHT      0.2000      0.0000

REM Highest difference peak  1.500,  deepest hole -0.515,  1-sigma level  0.178
Q1    1   0.4716  0.4007  0.3095  11.00000  0.05    0.34
Q2    1   0.5403  0.4342  0.3320  11.00000  0.05    0.28
Q3    1   0.4966  0.3718  0.2821  11.00000  0.05    0.28
Q4    1   0.8274  0.2266  0.3189  11.00000  0.05    0.24
Q5    1   0.6362  0.3297  0.2079  11.00000  0.05    0.24
Q6    1   0.8873  0.1688  0.2741  11.00000  0.05    0.23
Q7    1   0.8619  0.3531  0.2197  11.00000  0.05    0.23
Q8    1   0.8172  0.3302  0.2237  11.00000  0.05    0.21
;
_shelx_res_checksum                26370
_shelx_hkl_file
;
   0   0  -4 1234.32  254.64
   0   0   4 1204.74  261.78
   0   0   6  256.07  169.14
   0   0  -6   11.02  155.21
   0   0  -8 5696.43  705.16
   0   0   8 3058.94  698.90
   0   0  10   47.76  180.10
   0   0 -10   36.36  173.60
   0   0 -12   18.61  161.26
   0   0  12  422.49  181.13
   0   0 -14    1.77  166.63
   0   0  14   75.27  178.76
   0   0 -16 9999.00  589.67
   0   0  16  530.86  508.70
   0   0  18   -5.43  178.73
   0   0 -18   90.01  173.20
   0   0 -20  -54.73  151.22
   0   0  20   -9.10  148.02
   0   0  22   53.70  143.58
   0   0 -22  231.45  152.31
   0   0 -24  455.20  167.43
   0   0  24 -105.28  157.72
   0   0  26  -45.05  149.75
   0   0 -26   28.18  129.20
   0   2  -2  383.92   62.11
   0  -2   2  373.45   62.24
   0   2  -4  -19.98   19.41
   0  -2   4    2.24   19.65
   0  -2   6   11.05   24.47
   0   2  -6    0.67   22.76
   0  -2   8    9.64   32.90
   0   2  -8   20.99   32.06
   0  -2  10  319.43   63.30
   0   2 -10  287.43   62.45
   0  -2  12   26.34   46.92
   0   2 -12   17.18   43.13
   0  -2  14  571.65  137.89
   0   2 -14  935.70  139.12
   0  -2  16   40.18   72.35
   0   2 -16   20.60   67.89
   0  -2  18  -22.79   72.27
   0   2 -18  361.49   85.82
   0   2 -20   -2.34   66.58
   0  -2  22  -77.40   65.63
   0   2 -22   62.30   66.08
   0  -2 -22   56.94  296.98
   0   2 -24    3.07   69.14
   0  -2  24  -30.90   69.28
   0   4  -4 5004.27  711.11
   0  -4   4 4189.25  710.77
   0  -4   6   51.99   23.95
   0   4  -6   70.27   22.25
   0  -4   8  177.63   35.07
   0   4  -8  143.76   34.87
   0  -4  10   -2.99   24.11
   0   4 -10    7.94   23.93
   0  -4  12 3554.80  593.42
   0   4 -12 4057.62  593.76
   0   4 -14   15.73   29.69
   0  -4  14   30.05   33.14
   0   4 -16   91.49   37.14
   0  -4  16   31.21   36.17
   0   4 -18   29.54   32.53
   0  -4  18    4.45   29.48
   0   4 -20 1255.49  100.57
   0  -4  20  189.80   85.51
   0   4 -22    6.79   32.35
   0  -4  22  -24.08   35.31
   0  -4  24    2.01   37.78
   0   4 -24   60.16   37.57
   0  -6   4   31.71   16.47
   0   6  -4   17.29   15.66
   0   6  -6  887.11  140.62
   0  -6   6  868.18  140.82
   0  -6   8   20.86   18.74
   0   6  -8    0.58   15.59
   0   6 -10  139.64   34.20
   0  -6  10  163.66   37.15
   0  -6  12   23.35   23.71
   0   6 -12   12.27   22.23
   0  -6  14  891.04  150.87
   0   6 -14  954.97  150.59
   0   6 -16   27.28   23.49
   0  -6  16   -8.52   24.45
   0  -6  18  242.95   50.60
   0   6 -18  278.68   51.22
   0   6 -20   16.72   23.81
   0  -6  20   15.52   19.43
   0  -6  22   11.49   25.06
   0   6 -22   89.70   26.61
   0   6 -24   22.42   25.95
   0  -6  24   -8.50   23.58
   0   8  -6  152.58   34.85
   0  -8   6  206.85   35.87
   0   8  -8 1323.25  215.71
   0  -8   8 1399.65  216.54
   0   8 -10   30.83   19.48
   0  -8  10   29.42   21.86
   0   8 -12   24.69   19.56
   0  -8  12   17.98   25.52
   0   8 -14   32.13   24.24
   0  -8  14   34.71   27.05
   0  -8  16 1729.92  284.32
   0   8 -16 1867.76  285.12
   0  -8  18    3.44   21.58
   0   8 -18   16.57   19.73
   0   8 -20   80.78   25.95
   0  -8  20   55.25   24.86
   0   8 -22    5.97   18.97
   0  -8  22   -7.14   18.17
   0  10  -6  323.07   55.88
   0 -10   6  326.71   55.63
   0 -10   8   11.43   18.62
   0  10  -8   36.25   19.57
   0 -10  10 1059.68  172.32
   0  10 -10 1071.55  171.35
   0  10 -12   -1.89   18.73
   0 -10  12   15.96   20.38
   0  10 -14  321.44   53.95
   0 -10  14  276.43   55.10
   0  10 -16   63.73   23.49
   0 -10  16   93.58   28.86
   0  10 -18    1.97   19.30
   0 -10  18   10.14   21.52
   0  10 -20   11.47   17.23
   0 -10  20    6.44   17.84
   0 -10  22   20.53   21.42
   0  10 -22   40.38   19.24
   0 -12   8  133.03   28.30
   0  12  -8  110.00   25.69
   0 -12  10    5.80   16.68
   0  12 -10   14.84   15.69
   0  12 -12  245.24   56.11
   0 -12  12  435.24   61.83
   0  12 -14   29.17   17.82
   0 -12  14   30.87   20.36
   0  12 -16    5.47   13.66
   0 -12  16   22.00   18.26
   0  12 -18   19.99   15.52
   0 -12  18   17.84   20.75
   0 -12  20  375.87   73.08
   0  12 -20  405.07   70.78
   0  14  -8   -4.07   14.94
   0 -14   8   -7.32   14.10
   0 -14  10  286.23   44.82
   0  14 -10  182.29   40.17
   0 -14  12   20.76   17.14
   0  14 -12    2.94   12.81
   0 -14  14  164.47   36.26
   0  14 -14  114.49   30.27
   0  14 -16   17.42   16.63
   0 -14  16   33.39   22.67
   0 -16   8  399.76   68.99
   0 -16  10   25.42   15.47
   0  16 -10   10.75   14.63
   0  16 -12   48.66   18.91
   0 -16  12   45.53   20.44
   0  16 -14   -2.06   13.55
   0 -16  14   -0.46   18.28
  -1  -1   3   59.08   33.91
   1  -1   3   50.17   20.65
   1   1  -3   23.84   34.42
  -1   1  -3   78.77   21.01
  -1   1  -5    5.93   22.12
   1   1  -5   16.35   60.14
   1  -1   5    7.96   21.33
  -1  -1   5  -81.08   62.49
   1   1  -7  -13.06   77.01
   1  -1   7   49.95   34.45
  -1   1  -7   56.45   31.66
  -1  -1   9   17.66  100.54
  -1  -1  -9  -76.53  312.88
   1   1  -9   49.22   96.97
  -1   1  -9   97.60   53.28
   1  -1   9  118.46   58.12
   1  -1  11  -35.25   65.17
  -1  -1  11   21.23  104.81
  -1   1 -11   48.86   59.16
   1   1 -11    6.36  101.87
  -1  -1 -11  232.41  261.39
   1  -1  13   41.89   77.58
  -1   1 -13  257.92   81.14
  -1  -1 -13  178.38  237.93
  -1  -1  13    1.28  111.06
   1   1  13   42.65  285.91
   1   1 -13   74.01  109.53
  -1  -1  15   43.84  129.93
   1   1 -15   45.82  130.08
   1  -1  15  -14.29   93.96
  -1  -1 -15   32.54  254.09
   1   1  15 -127.37  284.71
   1  -1 -17  170.51  323.17
   1   1 -17  214.49  139.77
  -1   1 -17   89.61   93.77
   1  -1  17   45.34   95.67
  -1  -1  17  -26.11  133.55
  -1  -1 -17   79.37  238.18
   1   1  19  104.59  225.93
   1  -1 -19  -38.12  270.71
  -1  -1 -19 -126.49  211.28
   1   1 -19  100.97  123.45
  -1   1  19  -41.30  327.29
  -1   1 -19  107.52   84.15
   1  -1  19 -101.36   91.01
  -1  -1  19  -52.93  116.66
  -1  -1 -21  151.99  188.48
   1   1  21  -80.51  211.87
  -1   1 -21    7.56   80.77
   1   1 -21   -2.11  116.60
  -1  -1  21   17.15  111.45
   1  -1  21   -1.85   84.97
   1   1 -23  173.92  120.06
  -1  -1  23   64.60  112.13
  -1   1  23  -91.37  242.01
   1  -1  23   -8.71   90.37
  -1   1 -23  120.97   89.82
   1   1  23   18.43  200.32
   1  -1 -23  281.73  235.92
  -1  -1 -23  258.34  190.40
   1  -1  25  -19.68   97.28
   1   1 -25    2.53  108.81
  -1  -1  25  -77.21  120.48
  -1  -1 -25  145.35  170.35
  -1   1 -25  113.73   87.93
  -1   1  25  127.93  257.80
   1   1  25  -68.74  220.68
   1  -1 -25  110.55  214.30
  -1  -3   1   35.05   14.45
   1   3  -1   36.61   15.69
  -1   3  -3  500.43   98.71
  -1  -3   3  795.24   99.28
   1   3  -3  754.45   99.15
   1  -3   3  482.90   98.85
  -1  -3   5  222.07   47.71
   1   3  -5  220.44   47.44
   1  -3   5  338.16   47.33
  -1   3  -5  297.97   46.55
  -1  -3   7   79.94   27.32
  -1   3  -7   44.49   23.01
   1  -3   7   45.13   23.37
   1   3  -7   59.25   27.52
   1  -3   9   72.75   27.98
  -1  -3   9   58.58   30.74
  -1   3  -9   90.32   27.67
   1   3  -9   38.85   28.71
   1   3 -11  146.05   43.11
   1  -3  11  166.20   37.10
  -1  -3  11  160.10   43.50
  -1   3 -11  141.50   36.96
  -1   3 -13  228.69   43.43
   1   3 -13  161.33   46.83
  -1  -3  13  126.55   46.58
   1  -3  13  127.35   41.78
   1  -3  15   -4.75   34.00
  -1  -3  15   64.54   51.77
   1   3 -15    5.71   46.49
  -1   3 -15   62.02   37.40
   1   3 -17   42.37   52.00
   1  -3  17    5.41   38.45
  -1  -3  17   -1.54   52.94
  -1   3 -17   47.80   36.68
  -1  -3  19   54.25   55.05
   1   3 -19   25.75   52.40
   1  -3  19    7.74   40.24
  -1   3 -19   41.50   37.77
   1   3 -21  648.42   81.92
   1  -3  21   31.34   43.90
  -1   3 -21  148.04   48.97
  -1  -3  21    6.21   55.83
  -1  -3  23   -8.65   54.52
  -1   3 -23   47.30   44.94
   1  -3  23  -19.03   45.80
   1   3 -23   31.26   58.95
   1  -3  25    2.72   49.35
  -1   3 -25   50.43   46.16
   1   3 -25   34.12   64.62
  -1  -5   3  539.79   92.13
   1   5  -3  602.47   92.17
  -1   5  -5 1831.94  271.18
   1   5  -5 1554.52  271.76
   1  -5   5 1922.06  271.33
  -1  -5   5 1567.79  271.73
  -1  -5   7   79.48   25.70
   1   5  -7    7.89   20.13
   1  -5   7   86.66   22.67
  -1   5  -7   57.67   20.90
  -1   5  -9   58.85   19.34
   1   5  -9   14.35   20.20
  -1  -5   9   10.76   21.49
   1  -5   9   55.38   24.82
  -1   5 -11  353.87   61.80
   1  -5  11  328.96   61.47
  -1  -5  11  382.62   63.72
   1   5 -11  346.92   63.38
  -1  -5  13   86.46   35.67
   1  -5  13  171.81   37.16
   1   5 -13  116.75   36.45
  -1   5 -13  152.14   35.83
   1  -5  15   13.35   27.41
   1   5 -15   17.24   29.85
  -1   5 -15  -12.09   26.83
  -1  -5  15   -6.27   27.83
   1  -5  17   22.47   24.37
  -1  -5  17   30.57   28.99
  -1   5 -17   18.62   23.69
   1   5 -17   27.65   28.29
  -1   5 -19   82.49   28.59
   1  -5  19   53.18   28.36
   1   5 -19   77.25   33.02
  -1  -5  19   61.41   30.52
  -1   5 -21   71.75   29.09
   1   5 -21   33.24   30.87
  -1  -5  21   -1.86   26.07
   1  -5  21    6.60   23.93
  -1   5 -23   26.54   28.08
  -1  -5  23    9.98   29.89
   1   5 -23   34.98   31.83
   1  -5  23    8.12   24.63
  -1  -5  25    8.21   30.89
   1   5 -25   46.17   33.65
   1  -5  25   -7.33   26.14
  -1   5 -25   -0.67   26.76
  -1  -7   3   15.59   14.11
   1  -7   5   15.22   14.86
  -1  -7   5   60.88   18.52
  -1   7  -5   38.26   15.81
   1   7  -5   69.02   18.74
  -1   7  -7  429.80   82.56
   1  -7   7  447.16   83.09
   1   7  -7  614.57   84.71
  -1  -7   7  616.43   85.49
  -1  -7   9  143.07   30.42
   1  -7   9  124.43   31.35
  -1   7  -9  122.62   29.22
   1   7  -9  121.85   28.60
   1   7 -11    9.98   26.47
  -1   7 -11   31.56   19.98
  -1  -7  11   16.52   28.64
   1  -7  11   51.36   23.17
  -1   7 -13   36.84   27.58
   1  -7  13   34.51   30.15
  -1  -7  13   45.70   27.34
   1   7 -13   57.46   25.10
  -1  -7  15   12.12   26.21
  -1   7 -15   29.21   22.30
   1   7 -15   -6.18   23.66
   1  -7  15   40.98   23.13
  -1  -7  17  396.87   68.40
  -1   7 -17  365.10   66.60
   1  -7  17  349.32   67.98
   1   7 -17  404.80   68.69
  -1  -7  19  -13.28   19.85
   1   7 -19  -12.60   21.52
  -1   7 -19    7.85   20.65
   1  -7  19   21.84   21.13
  -1  -7  21   14.43   20.69
   1  -7  21    6.37   18.75
   1   7 -21    7.87   20.58
  -1   7 -21   32.42   21.30
  -1  -7  23   -1.20   23.13
   1  -7  23    5.58   19.29
   1   7 -23   28.54   23.17
  -1  -9   5   19.09   15.20
   1   9  -5   17.58   13.84
  -1   9  -7   79.96   19.62
  -1  -9   7   32.32   21.28
   1   9  -7   31.88   19.23
   1  -9   9  116.60   29.26
  -1  -9   9   22.33   28.12
   1   9  -9   73.90   27.08
  -1  -9  11   34.65   23.07
  -1   9 -11   52.69   22.26
   1  -9  11   61.69   27.02
   1   9 -11    6.49   17.37
   1  -9  13   17.42   22.17
  -1   9 -13    9.58   18.70
   1   9 -15  203.17   42.26
  -1   9 -15  197.14   39.13
  -1  -9  15  183.12   42.08
   1  -9  15  187.23   41.74
  -1   9 -17  223.81   43.91
  -1  -9  17  232.61   42.65
   1   9 -17  181.61   41.09
   1  -9  17  192.96   43.65
  -1   9 -19    5.93   17.17
   1  -9  19   34.49   18.89
   1   9 -19   14.05   18.21
  -1  -9  19   -3.73   21.11
   1   9 -21   20.85   20.31
  -1  -9  21   10.78   19.95
   1  -9  21   21.10   20.98
  -1   9 -21   48.56   18.65
  -1 -11   5  724.42  117.15
  -1  11  -7  163.90   38.53
   1  11  -7  207.14   39.17
  -1 -11   7  299.26   42.21
   1 -11   7  184.31   38.05
  -1  11  -9   93.06   25.08
  -1 -11   9   97.36   26.82
   1 -11   9  110.50   26.54
   1  11  -9   84.01   23.66
  -1 -11  11  336.64   69.11
   1 -11  11  419.36   69.52
  -1  11 -11  382.30   67.40
   1  11 -11  442.85   70.08
   1  11 -13   89.42   27.63
   1 -11  13  179.19   33.76
  -1  11 -13  191.02   32.45
  -1 -11  13  101.10   29.91
   1 -11  15   16.42   18.09
   1  11 -15   27.04   15.72
  -1 -11  15   26.95   19.43
  -1  11 -15   22.05   15.10
   1 -11  17    7.57   18.71
   1  11 -17   28.60   16.65
  -1  11 -17   35.65   16.73
  -1 -11  17   26.75   22.79
   1  11 -19   30.89   24.43
  -1  11 -19  146.35   25.83
  -1 -11  19   41.61   25.08
   1 -11  19  142.88   31.44
   1  11 -21   80.56   24.85
   1 -11  21   74.65   25.83
  -1 -11  21   45.20   23.45
  -1  11 -21   98.70   26.91
  -1 -13   7   20.60   14.76
   1  13  -7    6.24   14.89
   1  13  -9   43.55   18.47
   1 -13   9   54.94   18.96
  -1  13  -9   45.35   16.54
  -1 -13   9   63.19   21.25
  -1 -13  11  540.25   52.13
   1 -13  11  128.06   43.28
  -1  13 -11  160.85   44.09
   1  13 -11  343.43   46.11
   1 -13  13   88.03   25.75
  -1  13 -13  113.32   22.40
   1  13 -13   31.74   19.64
  -1 -13  13   30.32   23.55
  -1 -13  15   45.09   20.84
  -1  13 -15   34.97   19.68
   1 -13  15   40.23   22.59
   1  13 -15   38.15   17.98
  -1  13 -17   30.02   16.40
  -1 -13  17    7.69   18.73
   1  13 -17    4.19   14.07
   1 -13  17    3.75   16.41
   1  13 -19   56.41   19.39
  -1  13 -19   51.00   19.91
   1 -13  19   36.84   21.09
  -1 -13  19   57.50   23.61
  -1 -15   7  446.93   75.80
   1 -15   9  129.16   27.03
   1  15  -9  100.21   24.93
  -1  15  -9   93.13   26.12
  -1 -15   9  138.54   27.45
  -1  15 -11    7.19   13.43
   1  15 -11   54.10   18.58
   1 -15  11    5.51   16.45
  -1 -15  11   76.28   19.41
   1  15 -13   44.63   17.66
  -1 -15  13   38.43   23.10
  -1  15 -13   63.44   18.54
   1 -15  13   32.21   18.83
   1  15 -15   93.91   24.49
  -1  15 -15   46.78   18.78
  -1 -15  15   47.31   25.11
   1 -15  15   43.20   24.96
  -1 -17   9   34.45   16.02
   1  17  -9   11.93   16.54
  -1  17 -11   -0.38   16.13
  -1 -17  11   23.23   18.19
   1  17 -11   35.10   15.53
   1 -17  11   14.15   14.95
   2   0   2  861.53  121.71
  -2   0  -2  712.47  121.52
  -2   0  -4  -32.68   24.28
   2   0   4   28.65   26.89
  -2   0  -6    1.30   50.18
   2   0   6  141.29   57.89
   2   0  -8  287.39  317.30
   2   0   8  111.80   82.58
   2   0 -10  189.77  337.62
  -2   0 -10 1318.92  214.13
   2   0  10 1394.54  220.08
  -2   0  10  269.55  332.61
   2   0  12   39.40  105.88
  -2   0 -12   97.68   92.70
   2   0 -12  114.21  262.68
   2   0 -14  414.74  325.09
  -2   0  14  118.91  299.19
  -2   0 -14 1938.72  238.51
   2   0  14 1112.07  235.88
  -2   0 -16  200.60  131.05
  -2   0  16  339.60  252.09
   2   0 -16   27.20  257.21
   2   0  16   77.38  142.61
   2   0 -18   97.62  232.82
   2   0  18    5.91  128.74
  -2   0 -18   30.12  116.86
  -2   0  18 -140.68  222.64
  -2   0 -20   21.80  109.95
   2   0 -20  128.20  205.03
  -2   0  20  -27.68  188.14
   2   0  20   53.79  117.33
  -2   0 -22   12.11  106.33
   2   0 -22   87.23  187.02
  -2   0  22  -21.20  174.12
   2   0  22   41.65  120.05
  -2   0 -24  -13.32  100.19
   2   0 -24   87.66  178.86
  -2   0  24  -87.24  184.85
   2   0  24   20.61  118.19
  -2  -2   0 1181.21  192.44
   2   2   0 1289.86  192.47
  -2  -2   2   75.57   21.53
   2   2  -2   51.48   20.25
   2   2  -4   92.55   29.21
  -2  -2   4  113.07   31.71
   2  -2   4  134.69   24.00
  -2   2  -4   65.92   21.84
   2  -2   6   12.53   19.81
  -2   2  -6   32.51   19.12
  -2  -2   6   75.57   35.33
   2   2  -6   14.68   34.07
   2  -2   8  132.65   35.95
  -2   2  -8  193.26   36.39
   2   2  -8  215.80   62.78
  -2  -2   8  136.29   62.23
  -2   2 -10   45.30   25.28
   2   2 -10   16.07   65.16
   2  -2  10   14.36   26.15
  -2  -2  10   61.83   65.18
   2   2 -12  340.38  101.60
   2  -2  12  441.93   71.65
  -2   2 -12  384.89   70.70
  -2  -2  12  214.81   97.62
  -2   2 -14   87.55   39.36
   2  -2  14   75.47   41.19
   2   2 -14   25.09   87.99
  -2  -2  14   89.90   88.33
   2  -2  16  139.67   57.22
  -2   2 -16  190.76   51.33
  -2  -2  16  -31.41  101.33
  -2  -2  18   77.04   90.31
   2  -2  18  -49.11   52.69
  -2   2 -18   67.22   45.81
   2   2 -18    6.62   88.36
  -2  -2 -20   63.38  253.02
  -2  -2  20  -51.14   83.36
  -2   2 -20   -3.30   46.59
   2  -2  20  -19.38   52.30
   2   2 -20  127.94   90.93
   2   2 -22   14.03   85.80
  -2  -2  22    6.42   83.50
  -2   2 -22   31.89   50.24
   2  -2  22   55.93   53.84
   2   2  22  -12.01  309.32
  -2  -2  24   60.32   88.35
   2   2  24  -38.34  305.69
   2   2 -24   90.90   93.56
   2  -2  24   -5.93   59.66
  -2  -2 -24  -88.20  215.14
   2   4  -2   53.69   17.82
  -2  -4   2  102.79   19.22
  -2  -4   4  173.87   30.98
  -2   4  -4  125.51   27.06
   2  -4   4  142.12   27.46
   2   4  -4  173.66   29.64
  -2  -4   6 1112.50  167.83
   2  -4   6 1125.52  167.55
   2   4  -6 1117.59  167.66
  -2   4  -6  892.02  167.22
  -2   4  -8   64.37   21.50
   2  -4   8   66.12   23.65
  -2  -4   8   49.22   27.79
   2   4  -8   61.65   27.68
  -2   4 -10  129.82   30.39
   2   4 -10   96.50   33.88
  -2  -4  10  135.66   34.39
   2  -4  10  142.04   30.89
   2  -4  12   56.43   26.00
  -2   4 -12   58.63   25.13
   2   4 -12   44.48   33.17
  -2  -4  12   18.67   31.20
   2  -4  14   34.18   27.45
   2   4 -14   43.46   39.57
  -2  -4  14    1.62   35.76
  -2   4 -14   39.32   26.51
  -2  -4  16   21.47   39.41
  -2   4 -16   17.82   26.56
   2  -4  16   15.22   26.94
   2   4 -16   37.28   39.15
   2  -4  18   59.35   30.47
  -2   4 -18   64.56   27.68
  -2  -4  18   29.91   42.63
   2   4 -18   81.22   43.05
   2   4 -20    7.62   40.10
   2  -4  20   14.70   25.79
  -2   4 -20   36.50   27.99
  -2  -4  20  -28.04   41.21
  -2  -4  22   14.90   42.59
   2   4 -22  100.46   49.67
   2  -4  22   -1.23   26.58
  -2   4 -22  120.47   32.89
   2  -4  24  -18.29   30.25
  -2   4 -24    3.73   27.81
   2   4 -24   74.99   50.44
  -2  -4  24    7.92   44.65
  -2  -6   2   89.75   21.50
   2   6  -2   98.44   22.02
   2   6  -4  187.31   35.66
  -2  -6   4  188.42   36.87
  -2   6  -6  160.99   29.73
   2   6  -6  128.07   28.04
  -2  -6   6  137.47   29.17
   2  -6   6  109.47   28.86
   2  -6   8   55.85   25.93
   2   6  -8  112.25   26.86
  -2   6  -8   52.25   23.55
  -2  -6   8  141.40   29.91
  -2  -6  10   16.26   22.26
   2   6 -10   14.99   20.42
  -2   6 -10    8.60   16.91
   2  -6  10   42.00   20.14
   2  -6  12  120.59   30.87
   2   6 -12    3.71   27.32
  -2  -6  12   57.81   30.39
  -2   6 -12   52.77   23.80
  -2   6 -14   45.71   24.52
   2   6 -14   24.71   28.65
  -2  -6  14   19.41   28.16
   2  -6  14   59.31   26.29
   2  -6  16   18.86   23.30
  -2   6 -16   -2.39   21.49
  -2  -6  16    5.72   24.35
   2   6 -16   24.96   26.42
   2  -6  18   37.54   22.85
   2   6 -18   50.82   25.80
  -2  -6  18   20.37   26.43
  -2   6 -18   20.48   21.93
  -2  -6  20   14.54   27.10
  -2   6 -20   83.43   25.89
   2  -6  20   70.01   24.41
   2   6 -20   99.86   32.39
  -2  -6  22    3.16   24.66
   2  -6  22   -8.98   19.16
   2   6 -22  -12.27   27.85
  -2   6 -22    5.68   20.07
  -2   6 -24   20.58   22.24
   2   6 -24  -13.20   28.86
   2  -6  24    9.50   21.60
  -2  -6  24   -9.61   26.53
  -2  -8   4   84.49   21.80
   2   8  -4   85.91   20.42
   2   8  -6   35.13   16.72
   2  -8   6   14.15   14.23
  -2  -8   6   50.02   21.49
  -2   8  -6   -3.47   14.47
  -2  -8   8   83.75   22.50
  -2   8  -8   26.35   18.19
   2   8  -8   89.18   22.66
   2  -8   8   17.17   18.95
   2   8 -10   53.45   27.44
  -2  -8  10   53.36   31.30
   2  -8  12   72.41   23.47
  -2  -8  12   40.20   30.24
   2   8 -12   23.91   26.31
  -2   8 -12   50.72   21.13
   2  -8  14   49.02   24.98
   2   8 -14   67.00   24.39
  -2   8 -14   50.38   20.11
  -2  -8  14   48.84   25.20
   2  -8  16   49.20   24.93
  -2  -8  16   -4.02   22.55
  -2   8 -16   51.47   24.90
   2   8 -16   38.90   21.95
  -2  -8  18    1.29   20.45
   2   8 -18    7.60   21.99
  -2   8 -18   19.41   18.53
   2  -8  18   12.03   18.71
  -2   8 -20   13.46   17.34
   2   8 -20   27.02   20.58
   2  -8  20   12.74   20.04
  -2  -8  20   -1.86   19.22
   2  -8  22    5.83   18.68
  -2   8 -22   23.30   19.89
   2   8 -22   33.43   22.05
  -2  -8  22    3.61   19.27
  -2 -10   4   73.72   20.80
   2  10  -6  144.87   32.26
  -2 -10   6  157.56   33.47
  -2 -10   8   58.79   25.58
   2  10  -8   53.48   21.50
   2 -10   8   40.74   18.81
  -2  10  -8   28.54   16.82
  -2  10 -10  214.73   40.95
   2  10 -10  236.68   43.29
   2 -10  10  207.29   41.76
  -2 -10  10  211.80   44.28
  -2  10 -12   57.26   23.09
   2 -10  12   55.88   25.54
  -2 -10  12   59.91   23.97
   2  10 -12   66.38   20.56
   2  10 -14   80.30   26.28
  -2  10 -14  125.65   27.60
   2 -10  14  101.40   27.08
  -2 -10  14  118.65   32.17
   2 -10  16   45.96   21.02
  -2 -10  16   44.97   22.99
  -2  10 -16   39.13   17.37
   2  10 -16   54.07   22.76
   2 -10  18   90.99   25.26
   2  10 -18   42.83   20.98
  -2 -10  18   14.25   20.30
  -2  10 -18   56.02   19.73
  -2  10 -20   23.66   19.31
   2 -10  20    9.25   20.37
   2  10 -20   37.42   20.36
  -2 -10  20   19.06   22.24
   2  10 -22   48.54   22.36
   2 -10  22   28.45   18.91
  -2  10 -22   57.91   21.59
  -2 -10  22   18.31   20.56
   2  12  -6   35.78   16.48
  -2 -12   6   13.31   15.56
   2  12  -8   54.34   21.03
  -2 -12   8   50.11   20.96
  -2  12  -8   83.55   20.33
   2 -12   8   73.20   20.50
  -2  12 -10   49.49   17.65
   2 -12  10   69.48   22.04
   2  12 -10   54.73   19.85
  -2 -12  10   36.68   23.42
  -2 -12  12  126.50   28.50
   2 -12  12   57.11   22.39
  -2  12 -12   30.75   18.67
  -2 -12  14   11.79   19.39
   2  12 -14   -3.32   15.02
  -2 -12  16   19.06   19.74
   2  12 -16    9.69   14.96
  -2  12 -16   23.36   17.16
   2 -12  16   26.52   19.58
  -2  12 -18   13.40   15.94
   2 -12  18   23.75   19.83
  -2  12 -20   18.76   15.40
  -2 -12  20   37.11   19.67
   2  12 -20   13.68   18.52
   2 -12  20   21.16   17.37
  -2 -14   6  442.93   74.78
  -2 -14   8   39.29   18.98
   2  14  -8   20.33   13.88
  -2  14 -10  129.73   27.77
   2 -14  10  130.67   27.65
  -2 -14  10  117.33   29.16
   2  14 -10  131.89   28.79
   2  14 -12   22.95   16.80
  -2  14 -12   38.75   17.22
   2 -14  12   36.24   18.18
  -2 -14  12   48.36   23.03
   2  14 -14  101.21   25.81
  -2 -14  14  118.38   29.94
   2 -14  14   63.05   24.34
  -2  14 -14   75.59   21.71
   2  14 -16    2.70   14.24
  -2  14 -16   65.63   20.43
   2 -14  16   55.70   23.34
  -2 -14  16    2.11   17.89
   2  16  -8    8.93   15.98
  -2 -16   8   10.69   13.68
  -2 -16  10   68.65   23.56
   2 -16  10   50.64   19.56
   2  16 -10   65.26   19.39
   2  16 -12   18.68   13.96
   2 -16  12    8.50   15.01
  -2 -16  12   -8.97   16.47
  -2  16 -12    5.02   13.09
  -2 -18   8   13.02   14.77
   3   1  -1  -52.14   82.49
  -3  -1   1   12.54   77.50
   3  -1   3  753.67  114.49
  -3  -1   3  724.94  163.74
   3   1  -3  807.80  165.50
  -3   1  -3  702.51  114.51
  -3  -1  -5   32.27  126.57
  -3  -1   5  -21.72  130.16
   3   1  -5   73.48  136.36
   3   1   5    3.47  155.86
  -3  -1  -7  109.35  150.75
   3   1   7  133.18  179.56
   3   1  -7  271.65  166.26
   3  -1   7  128.67   26.89
  -3   1  -7   57.05   25.24
  -3  -1   7   79.73  153.38
   3   1  -9   45.92  169.03
  -3  -1  -9  -12.78  149.16
   3   1   9   11.86  182.98
  -3   1  -9   49.37   29.68
   3  -1   9  102.60   31.87
  -3  -1   9  101.50  158.66
  -3  -1 -11  321.43  159.41
   3   1  11  340.53  190.86
   3   1 -11  234.71  177.45
  -3   1 -11  278.45   57.58
   3  -1  11  336.93   59.97
  -3  -1  11  -14.45  156.73
  -3  -1 -13  280.34  164.69
  -3   1 -13  197.07   51.22
   3   1 -13    1.81  169.46
  -3  -1  13 -125.89  158.10
   3  -1  13  169.79   55.29
   3   1  13  101.63  194.88
  -3  -1  15   27.37  183.94
   3   1 -15  -59.81  185.81
  -3   1 -15   86.87   54.71
   3  -1  15  122.20   65.12
   3   1  15  -20.11  203.21
  -3  -1 -15  119.79  164.50
   3   1  17    5.13  181.22
  -3  -1  17  115.90  165.16
   3  -1  17  -62.62   67.46
  -3   1 -17   24.03   57.81
   3   1 -17   30.00  178.04
  -3  -1 -17  -95.49  152.71
  -3   1 -19  104.89   62.29
   3   1 -19  494.74  175.92
  -3  -1  19 -129.31  153.86
   3  -1  19   30.82   62.81
   3   1  19    2.90  171.78
  -3  -1 -19  246.79  150.57
  -3   1 -21  192.99   69.40
   3   1 -21  -30.69  156.71
   3   1  21    3.24  162.98
  -3  -1  21  117.47  139.57
   3  -1  21   36.77   66.77
  -3  -1 -21  268.27  143.93
  -3   1 -23   29.11   65.72
  -3  -1  23  127.89  132.96
   3  -1  23   13.14   66.74
   3   1 -23   72.67  147.93
  -3  -1 -23  228.83  136.38
   3  -1 -23   59.72  289.54
   3   1  23  -48.76  172.09
   3  -1 -25   -5.95  255.80
  -3  -1  25  -23.20  137.21
   3   1  25  -37.02  178.69
   3  -1  25   -5.67   72.99
   3   1 -25  -32.63  141.06
  -3  -1 -25   19.77  128.94
   3   3  -1   88.26   20.01
  -3  -3   1   93.15   19.59
   3   3  -3  -16.37   17.07
  -3  -3   3    5.74   18.38
  -3   3  -5   75.67   17.83
   3  -3   5   70.93   18.88
   3   3  -5   44.26   26.82
  -3  -3   5   59.73   26.22
   3  -3   7   91.72   25.08
   3   3  -7   96.01   37.96
  -3   3  -7  107.11   24.00
  -3  -3   7  101.99   37.20
   3   3  -9  432.61   52.24
  -3  -3   9  482.18   52.42
  -3   3 -11   45.08   22.42
   3   3 -11   10.93   45.97
  -3  -3  11   31.48   46.35
   3  -3  11   38.32   23.31
   3  -3  13   27.57   25.06
   3   3 -13   11.83   56.31
  -3  -3  13   54.66   58.25
  -3   3 -13   17.11   23.38
  -3   3 -15   20.52   29.74
   3   3 -15    1.58   70.12
  -3  -3  15   18.91   73.84
   3   3 -17   21.20   71.48
   3  -3  17   -6.35   29.24
  -3  -3  17   23.46   69.47
  -3   3 -17   18.62   29.04
   3  -3  19   -2.55   26.72
  -3   3 -19  -10.32   28.24
   3   3 -19   65.94   72.93
   3  -3  21   -4.53   30.56
  -3   3 -21   53.02   29.33
   3   3 -21  -55.07   74.86
  -3  -3  21   23.07   60.92
  -3  -3  23   37.80   66.51
  -3   3 -23   19.52   31.15
   3   3 -23  -14.38   75.32
   3  -3  23    2.48   32.52
  -3   3 -25   11.54   31.73
   3  -3  25  -28.11   40.37
  -3  -3  25   12.24   67.36
  -3  -3 -25 -230.83  268.85
   3   5  -1  118.48   21.95
  -3  -5   1  101.69   21.48
  -3  -5   3  116.51   25.46
   3   5  -3   90.24   24.58
   3   5  -5   41.40   19.33
   3  -5   5   27.33   15.64
  -3   5  -5   35.54   16.00
  -3  -5   5   55.76   23.20
   3  -5   7  827.74  140.07
  -3   5  -7  879.39  139.94
   3   5  -7  834.90  140.53
  -3  -5   7 1010.19  141.48
  -3  -5   9 1002.73  154.88
   3  -5   9  879.38  152.73
   3   5  -9 1022.58  155.07
  -3   5  -9  982.68  153.07
  -3   5 -11   37.26   17.97
   3  -5  11   14.98   24.01
   3   5 -11   48.66   27.49
  -3  -5  11   40.60   27.31
   3   5 -13   27.20   29.59
   3  -5  13   71.38   26.15
  -3   5 -13   84.24   25.66
  -3  -5  13   12.56   33.51
  -3  -5  15  191.49   51.66
   3   5 -15  213.52   52.21
  -3   5 -15  238.69   44.77
   3  -5  15  210.82   46.70
  -3  -5  17   -2.01   29.91
   3   5 -17   15.99   33.02
  -3   5 -17   18.27   22.50
   3  -5  17    6.64   21.90
   3   5 -19   49.88   33.95
   3  -5  19   35.75   22.33
  -3  -5  19    1.99   31.28
  -3   5 -19   38.92   21.72
   3   5 -21   82.77   36.98
  -3  -5  21  -15.17   31.86
  -3   5 -21   26.99   21.50
   3  -5  21   20.30   19.55
  -3  -5  23  -23.24   38.38
  -3   5 -23   73.85   25.06
   3   5 -23   45.88   38.90
   3  -5  23    6.79   23.58
   3   7  -3  382.51   66.44
  -3  -7   3  420.02   66.80
   3   7  -5   87.66   23.35
  -3  -7   5   62.89   23.44
  -3   7  -7   21.49   15.29
   3   7  -7   24.15   17.37
  -3  -7   7   45.17   20.21
   3  -7   7   18.51   16.69
  -3  -7   9   55.67   28.86
   3   7  -9   37.57   26.93
   3  -7   9   42.35   22.66
  -3   7  -9   91.15   20.80
   3   7 -11   39.30   25.87
  -3  -7  11   63.18   28.69
  -3   7 -11  139.51   27.60
   3  -7  11   69.48   26.68
   3  -7  13  321.47   55.31
  -3   7 -13  253.26   52.19
   3   7 -13  302.48   56.94
  -3  -7  13  340.41   58.37
  -3   7 -15   14.75   20.89
   3  -7  15   21.25   24.54
  -3  -7  15   13.66   23.51
   3   7 -15   45.64   25.44
  -3   7 -17  -10.66   18.37
   3   7 -17   45.46   24.05
  -3  -7  17   13.76   22.88
   3  -7  17    2.99   17.70
  -3   7 -19   43.04   19.60
  -3  -7  19   38.99   23.92
   3  -7  19   42.77   22.38
   3   7 -19   31.51   24.51
  -3   7 -21   26.82   21.42
   3  -7  21   34.83   21.66
   3   7 -21   78.40   26.21
  -3  -7  21    2.33   22.80
   3  -7  23   -7.59   19.49
  -3   7 -23    3.87   17.85
   3   7 -23   -3.23   25.57
  -3  -7  23    4.63   24.32
   3   9  -3  920.99  142.79
  -3  -9   3  874.84  142.57
   3   9  -5  133.56   30.69
  -3  -9   5  166.74   31.25
  -3   9  -7   12.36   16.17
   3  -9   7   13.03   15.92
   3   9  -7   23.32   20.76
  -3  -9   7   57.32   23.88
  -3  -9   9    7.24   21.47
   3  -9   9   57.43   20.71
  -3   9  -9   24.85   19.08
   3   9  -9    6.26   17.68
  -3   9 -11  340.23   53.52
   3  -9  11  293.35   54.56
   3   9 -11  283.99   54.29
  -3  -9  11  252.92   54.06
  -3  -9  13  540.97  121.32
  -3   9 -13 1162.37  123.89
   3   9 -13  446.05  120.53
   3  -9  13 1089.94  124.68
  -3   9 -15   32.99   15.79
   3  -9  15   28.95   18.46
  -3  -9  15   23.35   21.40
   3   9 -15   30.28   19.67
  -3   9 -17   52.97   19.45
   3  -9  17   37.02   22.36
   3   9 -17   45.87   21.12
  -3  -9  17   13.13   21.84
  -3   9 -19  166.71   35.89
  -3  -9  19  107.04   35.76
   3  -9  19  155.91   35.77
   3   9 -19  179.24   38.56
  -3   9 -21    0.46   18.04
   3   9 -21   24.71   21.76
  -3  -9  21   -1.46   19.47
   3  -9  21   10.47   17.25
   3  11  -5  121.76   26.60
  -3 -11   5  125.84   27.39
   3  11  -7   85.94   23.94
  -3 -11   7  103.07   25.45
  -3  11  -9  126.85   25.85
   3 -11   9  151.99   26.75
   3  11  -9   68.51   27.41
  -3 -11   9  100.31   30.83
  -3  11 -11   26.43   16.12
   3 -11  11   39.02   17.72
   3  11 -11   14.28   16.66
  -3 -11  11   18.06   19.10
  -3 -11  13   20.92   21.73
   3  11 -13   56.59   19.12
  -3  11 -13   44.56   18.37
   3 -11  13   76.05   23.92
  -3  11 -15  168.47   34.14
   3  11 -15   91.42   30.86
  -3 -11  15  116.59   37.02
   3 -11  17   61.34   20.13
  -3 -11  17   43.47   22.54
  -3  11 -17   31.83   16.23
   3  11 -17   24.69   20.98
  -3  11 -19   -0.41   13.88
   3 -11  19   14.24   18.37
   3  11 -19   12.38   16.45
  -3 -11  19    4.91   18.41
  -3 -13   5    9.86   15.15
   3  13  -7  467.85   75.61
  -3 -13   7  425.95   77.11
   3 -13   9  460.37   88.83
   3  13  -9  645.32   90.32
  -3 -13   9  535.66   90.28
  -3  13 -11   17.45   13.19
  -3 -13  11   30.60   21.92
   3  13 -11   33.52   17.84
   3 -13  11   23.04   16.53
   3  13 -13   33.86   18.52
   3 -13  13   40.06   18.72
  -3  13 -13   46.22   16.85
  -3 -13  13   35.15   20.27
  -3 -13  15   84.01   34.04
   3  13 -15  133.54   32.92
  -3 -13  17   39.82   22.17
  -3  13 -17   85.23   24.01
   3 -13  17  100.71   27.40
   3  13 -17   50.71   19.55
  -3 -15   7   18.94   13.96
   3  15  -7   21.71   15.56
  -3 -15   9   53.07   20.92
   3  15  -9   55.36   19.83
  -3  15 -11    6.06   15.33
   3 -15  11   31.39   15.82
   3  15 -11   44.28   15.98
  -3 -15  11   62.36   21.66
  -3  15 -13   77.83   21.32
  -3 -15  13   75.58   28.01
   3 -15  13   64.78   24.79
   3  15 -13  127.58   26.36
  -3 -15  15   40.21   21.88
   3  15 -15   67.85   20.00
  -3  15 -15   25.76   15.81
   3 -15  15   46.85   19.57
  -3 -17   7   28.13   16.12
  -3 -17   9   33.67   16.41
   3  17  -9    0.35   14.19
   3  17 -11  106.69   27.74
   3 -17  11  117.95   27.11
  -3 -17  11  105.50   27.49
  -4   0  -4 6823.79 1016.82
   4   0   4 6202.89 1017.03
   4   0   6   37.62   18.90
  -4   0  -6   42.45   18.58
  -4   0  -8  325.31   64.28
   4   0   8  412.87   66.35
   4   0  10   48.91   44.81
  -4   0 -10   18.87   37.85
   4   0  12 7824.33 1306.22
   4   0 -12 4950.70 1393.06
  -4   0 -12 9152.27 1305.00
   4   0 -14  258.94  370.67
   4   0  14   -9.14   81.54
  -4   0 -14  -36.72   70.26
   4   0 -16   95.14  341.52
  -4   0 -16   34.62   75.81
   4   0  16  121.76   91.58
   4   0  18  -67.28   87.62
  -4   0 -18   48.26   69.66
  -4   0  18  -41.89  256.61
   4   0  20  549.63  229.10
  -4   0  20   45.08  309.11
  -4   0 -20 3768.02  262.83
   4   0 -20 1128.57  370.03
   4   0 -22 -113.90  238.38
  -4   0  22   41.20  207.32
   4   0  22  -67.28   94.30
  -4   0 -22   63.43   80.20
   4   0  24   92.91  102.55
  -4   0  24  104.62  209.85
   4   0 -24  -59.27  225.50
  -4   0 -24    1.65   79.80
  -4  -2   0   -5.36   12.18
   4   2   0    0.78   12.41
   4   2  -2   86.17   28.86
  -4  -2   2   94.15   29.23
   4  -2   4  194.60   31.89
  -4   2  -4  184.12   32.02
   4   2  -4  183.30   58.64
  -4  -2   4  159.54   58.01
   4   2  -6 2100.31  390.80
  -4  -2   6 2072.13  390.15
   4  -2   6 2473.61  377.81
  -4   2  -6 2463.45  377.91
   4  -2   8   54.80   20.31
  -4   2  -8    9.59   19.22
   4   2  -8   41.64   89.33
  -4  -2   8    0.73   87.09
   4   2 -10  728.12  132.20
  -4  -2  10  434.52  123.21
  -4   2 -10  447.86   75.92
   4  -2  10  445.71   76.22
   4   2 -12  -19.46  109.30
  -4  -2  12   59.81  104.11
   4  -2  12   55.78   24.29
  -4   2 -12   14.87   22.30
   4   2  14  147.22  352.05
   4   2 -14  295.75  135.75
  -4  -2  14  -45.72  127.19
  -4   2 -14  159.39   43.09
   4  -2  14  273.77   48.16
  -4  -2 -14  214.45  242.41
   4  -2  16   13.13   31.27
   4   2 -16   76.22  128.82
  -4  -2 -16  -31.47  218.61
  -4  -2  16   12.47  121.04
  -4   2 -16  -10.31   30.53
  -4   2 -18  109.19   35.32
   4  -2  18  100.08   40.52
  -4  -2  18   47.86  113.30
  -4  -2 -18   73.92  199.34
   4   2 -18   33.14  126.69
   4   2  18  299.51  274.59
   4   2  20   47.34  242.78
  -4   2 -20   -9.80   30.72
   4  -2  20    0.70   32.98
   4   2 -20   90.81  118.68
  -4  -2 -20  -79.50  180.13
   4  -2  22  102.76   49.02
   4   2 -22  135.29  119.11
  -4  -2  22  -18.60  108.38
  -4  -2 -22  189.44  178.26
  -4   2 -22  206.75   48.33
   4   2 -24    7.88  111.35
  -4   2 -24   40.12   39.93
   4  -2  24   -1.12   45.24
  -4  -2  24  -43.74  109.90
  -4  -2 -24   24.28  158.51
  -4  -4   0 4501.67  670.37
   4   4   0 4145.55  670.21
   4   4  -2   53.83   17.88
  -4  -4   2   72.00   19.21
   4   4  -4  114.68   28.98
  -4  -4   4  147.41   31.11
  -4  -4   6   58.52   34.41
   4   4  -6   79.18   34.66
  -4   4  -8 6940.37 1053.05
   4   4  -8 7808.29 1054.39
  -4  -4   8 6343.24 1054.19
   4  -4   8 6193.86 1053.06
  -4   4 -10  111.65   27.43
   4  -4  10  129.15   29.37
  -4  -4  10  110.92   38.37
   4   4 -10  188.55   41.20
  -4   4 -12  201.17   40.51
   4  -4  12  164.50   39.23
   4   4 -12  322.20   55.12
  -4  -4  12  189.98   53.10
   4  -4  14   32.77   27.27
   4   4 -14   -5.96   47.56
  -4   4 -14   53.93   24.01
  -4  -4  14   44.24   49.87
  -4   4 -16 1878.69  207.93
   4  -4  16 1771.83  207.77
   4   4 -16 1673.78  220.30
  -4  -4  18   17.61   49.22
   4   4 -18   84.11   51.53
   4  -4  18   32.47   22.80
  -4   4 -18   31.65   21.87
  -4  -4  20    1.20   48.95
  -4   4 -20   38.63   22.15
   4  -4  20   -2.79   22.39
   4   4 -20   -1.05   55.07
   4   4 -22  117.38   63.26
  -4  -4  22    7.20   53.37
  -4   4 -22    1.50   23.89
   4  -4  22    7.59   23.83
  -4   4 -24 1151.27   94.81
   4   4 -24 1268.94  139.09
   4   6  -2  708.07  110.66
  -4  -6   2  683.98  110.52
   4   6  -4   58.60   18.99
  -4  -6   4   62.11   19.43
   4   6  -6  214.81   39.05
  -4  -6   6  221.41   40.74
   4  -6   6  194.59   35.14
  -4   6  -6  173.07   34.78
   4   6  -8   45.71   21.37
   4  -6   8   30.88   16.14
  -4  -6   8   41.43   23.23
  -4   6  -8   45.64   16.54
  -4  -6  10    9.29   25.80
   4   6 -10   36.06   26.10
  -4   6 -10   33.76   20.78
   4  -6  10   43.61   21.77
  -4   6 -12   44.18   17.81
   4  -6  12   24.38   21.62
   4   6 -12   14.33   27.43
  -4  -6  12    8.23   28.62
  -4   6 -14   78.23   23.20
   4  -6  14   66.26   29.22
   4   6 -14   58.66   30.72
  -4  -6  14   30.08   28.64
  -4   6 -16   10.59   18.27
   4  -6  16    7.28   18.62
   4   6 -16    9.49   26.18
  -4  -6  16   -0.47   26.43
  -4  -6  18   16.85   29.30
  -4   6 -18   84.17   24.55
   4   6 -18   47.25   32.11
  -4  -6  20    3.77   25.14
   4   6 -20    2.47   28.31
  -4   6 -20    3.35   18.58
   4  -6  20   19.01   19.49
   4   6 -22  114.40   36.60
  -4  -6  22  -19.38   28.94
   4  -6  22   34.51   20.39
  -4   6 -22   79.65   23.71
   4   6 -24   30.34   33.39
  -4  -6  24   13.77   30.40
  -4   6 -24   12.16   19.36
   4  -6  24   16.09   19.90
   4   8  -2  189.75   36.01
  -4  -8   2  220.27   36.21
  -4  -8   4 3087.22  494.78
   4   8  -4 3249.13  494.66
   4   8  -6   73.13   24.07
  -4  -8   6   88.13   24.73
   4   8  -8   39.82   19.58
   4  -8   8   35.80   17.26
  -4   8  -8   10.54   14.58
  -4  -8   8   41.41   23.23
   4   8 -10   97.71   28.06
  -4  -8  10   17.29   29.22
  -4   8 -10   22.18   16.63
   4  -8  10   21.07   18.46
  -4   8 -12 1793.37  326.56
   4  -8  12 1817.79  326.23
   4   8 -12 2587.84  327.90
  -4  -8  12 2228.94  327.32
   4  -8  14   57.87   21.48
  -4  -8  14   66.72   26.57
   4   8 -14   71.61   25.27
  -4   8 -14   44.04   19.46
  -4   8 -16   58.16   19.55
   4  -8  16   32.99   19.98
   4   8 -16   72.59   25.49
  -4  -8  16   94.58   25.61
   4   8 -18   91.94   26.02
  -4   8 -18   56.07   24.48
  -4  -8  18   32.15   22.97
   4  -8  18   24.35   22.60
  -4   8 -20  917.66   85.43
   4  -8  20  722.16   81.96
   4   8 -20  550.19   83.26
  -4   8 -22   16.78   16.70
   4  -8  22    7.08   19.94
   4   8 -22   -4.38   22.34
  -4  -8  22  -10.44   22.99
  -4 -10   4  295.19   41.41
   4  10  -4  156.02   37.65
  -4 -10   6  507.59   85.95
   4  10  -6  520.14   85.11
   4 -10   8    9.48   15.65
   4  10  -8   26.02   18.55
  -4 -10   8   44.57   22.96
   4 -10  10  304.52   57.70
  -4  10 -10  305.09   56.03
  -4 -10  10  327.49   58.13
   4  10 -10  362.16   57.41
   4  10 -12  109.11   23.99
  -4 -10  12  130.96   29.50
  -4  10 -12   41.54   18.33
   4 -10  12   37.02   21.05
   4  10 -14   34.99   21.75
  -4 -10  14   17.86   22.11
  -4  10 -14   59.08   21.40
   4 -10  14   16.51   20.56
  -4 -10  16    5.49   19.42
   4  10 -16   20.18   18.04
  -4  10 -16   45.02   17.15
   4 -10  16   24.21   17.85
  -4 -10  18   52.02   24.68
   4 -10  18   70.35   22.50
   4  10 -18   43.61   22.25
  -4  10 -18   83.84   20.97
  -4  10 -20    8.88   15.70
   4 -10  20   48.61   25.56
  -4 -10  20   25.81   21.50
   4  10 -20   46.32   22.56
   4  12  -4   38.45   17.14
  -4 -12   4   21.10   14.83
   4  12  -6  108.54   25.38
  -4 -12   6   96.37   26.55
  -4 -12   8  873.30  144.35
   4  12  -8  903.43  143.53
   4  12 -10  128.75   30.53
   4 -12  10  131.57   27.90
  -4 -12  10  149.98   33.53
  -4  12 -10  125.56   27.52
  -4 -12  12   58.62   21.50
  -4  12 -12   49.87   18.11
   4  12 -12   59.23   18.87
   4 -12  12   67.08   20.92
   4  12 -14   53.88   21.50
  -4 -12  14   27.82   23.90
  -4  12 -14  115.97   22.33
   4 -12  14  106.13   24.89
  -4  12 -16  615.50   88.75
   4 -12  16  550.99   88.08
   4  12 -16  400.04   86.03
  -4 -12  16  490.21   89.02
  -4 -12  18   -0.93   18.73
   4  12 -18   20.16   19.79
   4 -12  18   17.03   17.89
  -4 -14   6  160.57   32.73
   4  14  -6  169.97   32.49
   4  14  -8   51.22   19.00
  -4 -14   8   33.35   17.44
   4  14 -10   74.79   20.99
   4 -14  10   38.37   18.27
  -4 -14  10   78.67   24.58
   4 -14  12   18.45   15.70
  -4  14 -12   18.41   12.98
   4  14 -12   41.81   18.67
  -4 -14  12   35.43   21.59
  -4 -14  14  132.23   27.22
   4  14 -14  115.42   26.13
   4 -14  14   55.99   23.32
  -4  14 -14  102.38   24.45
   4  14 -16   17.27   14.87
  -4  14 -16   60.06   16.41
  -4 -14  16    7.86   18.71
   4 -14  16   22.09   19.82
  -4 -16   6   17.57   14.53
  -4 -16   8    3.31   16.90
   4  16  -8   33.32   15.43
   4  16 -10    6.53   14.93
  -4 -16  10   44.12   17.10
  -4  16 -12   97.00   38.09
   4  16 -12  260.01   42.68
  -4 -16  12  264.60   45.76
   4 -16  12  312.82   42.31
   5   1   3  340.71   54.20
   5   1  -3  234.03  309.70
  -5  -1  -3  353.40   54.18
   5   1  -5 1508.67  412.00
  -5  -1   5 1137.25  384.27
   5   1   5 2039.96  272.90
  -5   1  -5 1755.81  271.98
  -5  -1  -5 1861.00  272.12
   5  -1   5 1457.57  271.99
  -5   1  -7   49.20   17.97
   5  -1   7   39.00   18.77
  -5  -1  -7    0.23   40.63
   5   1  -7  -28.51  261.12
   5  -1   9   34.75   19.23
  -5  -1   9   26.36  218.57
  -5   1  -9   49.63   19.04
  -5  -1  -9   33.08   54.19
   5   1  -9  -13.66  255.36
   5   1   9   76.65   73.06
   5   1  11  157.33  103.58
  -5   1 -11  225.26   45.37
  -5  -1  11  148.76  216.62
   5  -1  11  307.56   47.64
   5   1 -11  241.43  254.69
  -5  -1 -11  109.35   81.14
  -5  -1 -13   34.91   96.32
   5   1  13  115.71  121.84
  -5  -1  13  -22.40  218.86
   5   1 -13  187.45  261.78
  -5   1 -13   76.25   33.37
   5  -1  13  187.16   38.61
  -5   1 -15   62.04   31.72
  -5  -1 -15   -1.11   99.98
   5  -1  15    1.67   37.46
  -5  -1  15   52.34  216.70
   5   1  15   52.75  128.86
   5   1 -15    9.27  261.23
  -5   1 -17   21.23   33.61
  -5  -1  17   20.43  194.12
  -5  -1 -17  116.41   98.72
   5  -1  17   87.56   43.35
   5   1  17   28.01  122.66
   5   1 -17  -80.81  224.35
  -5  -1  19  -63.48  165.68
  -5   1 -19   96.47   41.15
   5   1 -19   -3.43  200.73
   5  -1  19   76.41   48.42
   5   1  19  -69.39  129.01
  -5  -1 -19   67.29   95.88
  -5  -1  21   28.47  155.55
  -5  -1 -21  196.85  106.69
   5   1 -21   92.54  198.75
   5  -1  21   44.13   50.26
  -5   1 -21   76.18   44.79
   5   1  21  -31.75  128.00
  -5  -1  23  -39.06  149.75
  -5  -1 -23    5.77   95.63
   5   1 -23  -27.77  181.87
  -5   1 -23   47.00   44.47
   5  -1  23  -12.91   55.25
   5   1  23   13.74  125.88
  -5  -1  25   37.40  151.53
   5   1 -25  157.40  171.75
  -5   1 -25   59.56   51.04
  -5  -1 -25  -19.39   92.41
   5  -1 -25   23.02  323.52
   5   1  25  -21.79  136.36
  -5  -3   1  171.10   51.08
   5   3   1  516.02   49.98
  -5  -3  -1  317.58   49.50
   5   3  -1  126.67   50.86
   5   3  -3   44.25   24.35
  -5  -3   3   47.67   26.03
   5   3  -5   65.26   34.48
  -5  -3   5   73.03   34.16
   5  -3   5   66.09   16.29
  -5   3  -7  878.96  129.22
   5  -3   7  785.11  129.49
   5   3  -7  723.51  138.98
  -5  -3   7  724.05  139.77
  -5   3  -9 1846.88  302.30
   5  -3   9 2206.48  302.87
   5   3  -9 1791.23  313.29
  -5  -3   9 1390.42  312.12
   5   3 -11   28.02   76.58
  -5  -3  11   21.01   70.34
   5  -3  11   34.93   20.61
  -5   3 -11   53.58   21.39
   5  -3  13   28.96   26.32
  -5   3 -13   56.07   24.22
   5   3 -13   77.11   92.35
   5  -3  15   93.14   30.22
  -5   3 -15  137.29   31.14
  -5  -3  15    8.38   84.59
  -5  -3  17   35.40   78.81
  -5   3 -17   29.31   22.03
   5  -3  17   -1.97   21.11
   5   3 -17   34.50   87.93
  -5  -3 -19  -43.18  241.76
  -5  -3  19   29.04   73.54
  -5   3 -19   32.90   20.55
   5  -3  19   31.45   24.90
   5   3 -19   25.07   84.97
   5  -3  21   17.58   25.01
  -5  -3  21  -26.26   79.12
  -5   3 -21   47.05   26.79
   5   3 -21   45.59   91.37
   5  -3  23   37.25   29.60
  -5  -3  23  -30.40   82.27
  -5  -3 -23  -16.33  195.60
   5   3 -23   30.03   88.40
   5   5  -1  246.90   31.51
  -5  -5   1   93.39   30.84
   5   5  -3   37.69   17.43
  -5  -5   3   38.35   19.05
  -5  -5   5   -3.14   19.94
   5   5  -5    1.66   18.07
   5  -5   7  102.57   20.91
  -5   5  -7   76.49   19.09
   5   5  -7   91.70   28.35
  -5  -5   7   78.51   27.40
   5  -5   9 1066.44   58.97
  -5   5  -9  411.65   51.39
   5  -5  11   63.69   21.87
   5   5 -11   27.95   35.33
  -5  -5  11  -11.60   34.25
  -5  -5  13   22.50   34.54
  -5   5 -13   49.86   20.53
   5  -5  13   22.25   25.26
   5   5 -13   35.65   38.41
  -5  -5  15   88.10   39.75
   5  -5  15   55.44   24.55
  -5   5 -15   51.86   24.62
   5   5 -17    8.75   36.53
   5  -5  17   22.96   21.81
  -5  -5  17  -26.72   36.55
   5   5 -19   16.65   40.58
  -5  -5  19  -10.61   37.16
   5  -5  19    7.16   19.50
  -5   5 -19   19.87   19.10
   5   5 -21   46.41   46.46
  -5   5 -21   45.79   20.77
  -5  -5  21   33.16   39.87
   5  -5  21    8.30   19.15
  -5   5 -23   26.25   20.71
   5  -5  23   22.75   20.61
  -5  -5  23    9.25   43.49
  -5  -7   1  158.90   30.32
   5   7  -1  174.52   29.61
  -5  -7   3  738.77  107.91
   5   7  -3  605.61  107.09
   5   7  -5  694.12  100.64
  -5  -7   5  554.77  100.38
  -5  -7   7   39.77   25.09
   5   7  -7   16.89   22.93
   5  -7   7   59.70   16.53
  -5   7  -9   86.96   22.86
   5  -7   9   87.16   22.90
  -5  -7   9   75.24   28.67
   5   7  -9   44.96   24.12
  -5   7 -11  406.18   45.48
   5  -7  11  443.56   47.85
   5   7 -11   49.00   44.14
  -5  -7  11   64.86   44.89
  -5   7 -13  269.54   50.69
   5  -7  13  233.85   49.86
  -5  -7  13  300.22   53.89
   5   7 -13  352.57   55.56
  -5   7 -15   30.22   15.91
   5  -7  15   19.97   19.56
   5   7 -15   27.28   24.07
  -5  -7  15  -12.15   23.28
  -5   7 -17   35.37   18.85
   5  -7  17   27.46   20.98
   5   7 -17   26.47   23.34
  -5  -7  17   -3.48   24.04
   5  -7  19  196.29   35.09
  -5  -7  19   10.82   34.22
  -5  -7  21   -0.64   26.04
   5  -7  21   77.79   25.64
  -5   7 -21  117.09   24.54
   5   7 -21  113.96   35.14
   5   7 -23    6.48   28.74
  -5  -7  23   -8.22   24.13
  -5   7 -23   41.11   19.24
   5  -7  23    5.71   19.31
  -5  -9   3  738.67  100.15
   5   9  -3  512.36   98.94
   5   9  -5  283.51   43.67
  -5  -9   5  171.44   43.67
  -5  -9   7   93.36   27.99
   5   9  -7  134.81   27.71
   5  -9   9   96.52   24.84
  -5   9  -9   89.11   24.33
  -5  -9   9  177.68   31.38
   5   9  -9  141.19   28.91
  -5  -9  11   32.53   26.00
  -5   9 -11   48.24   19.20
   5  -9  11   21.37   17.74
   5  -9  13  413.40   50.13
  -5   9 -13  334.43   46.42
  -5  -9  13  154.86   45.33
   5   9 -13  151.81   43.92
   5   9 -15   68.09   23.91
  -5  -9  15   70.85   25.52
  -5   9 -15   49.58   19.93
   5  -9  15   38.96   20.50
  -5   9 -17   14.07   12.99
   5  -9  17    3.17   15.87
   5   9 -17    8.64   20.85
  -5  -9  17   17.41   21.24
  -5   9 -19   70.05   21.72
   5  -9  19   85.11   26.53
  -5  -9  19   51.74   24.26
   5   9 -19   63.01   25.87
   5   9 -21   27.15   22.20
  -5   9 -21   47.71   23.07
   5  -9  21   92.29   24.97
  -5  -9  21   23.64   21.31
   5  11  -3    9.95   15.33
  -5 -11   3   20.52   14.66
   5  11  -5   66.39   21.19
  -5 -11   5   67.30   21.22
   5  11  -7  376.35   72.59
  -5 -11   7  498.09   74.87
   5 -11   9  434.85   60.79
   5  11  -9  276.67   60.61
  -5 -11   9  333.68   60.76
   5  11 -11   29.51   16.03
  -5 -11  11   35.64   19.95
  -5  11 -11   17.85   12.77
   5 -11  11   30.12   16.64
   5  11 -13   37.62   16.79
  -5 -11  13   45.34   24.68
  -5  11 -13   25.94   14.56
   5 -11  13    6.00   14.42
  -5  11 -15  358.37   63.21
   5 -11  15  407.93   65.81
   5  11 -15  295.66   64.48
  -5 -11  15  380.90   65.09
  -5 -11  17   33.52   21.59
   5  11 -17   35.92   20.63
  -5  11 -17   60.33   20.59
   5 -11  17   89.92   23.33
   5 -11  19   12.89   15.99
   5  11 -19   27.41   19.36
  -5 -11  19   25.40   20.11
  -5  11 -19   25.81   15.30
  -5 -13   5   75.16   20.83
   5  13  -5   72.74   19.12
  -5 -13   7  154.53   35.04
   5  13  -7  212.18   36.11
   5  13  -9  333.43   53.61
  -5 -13   9  247.64   53.90
  -5  13 -11   44.71   16.25
   5 -13  11   37.54   15.91
   5  13 -11   50.85   18.71
  -5 -13  11   24.23   19.70
   5  13 -13    7.85   14.14
  -5 -13  13   -2.29   18.31
  -5  13 -13   22.51   13.30
   5 -13  13   24.37   18.76
   5  13 -15   36.14   17.07
  -5  13 -15    7.63   13.27
   5 -13  15    7.51   15.98
   5  13 -17   31.78   20.78
  -5 -13  17   11.81   23.36
  -5  13 -17   81.07   21.75
   5 -13  17   69.00   25.07
  -5 -15   5   80.49   19.81
   5  15  -5   53.94   19.96
   5  15  -7  135.07   27.94
  -5 -15   7  126.63   30.23
   5  15  -9   10.27   13.91
  -5 -15   9   64.15   20.15
   5  15 -11  113.36   24.15
   5 -15  11   16.07   17.39
  -5 -15  11  135.81   29.01
   5 -15  13   94.39   22.10
   5  15 -13  108.93   25.45
  -5 -15  13  115.67   27.02
  -5  15 -13   36.36   19.25
   5  17  -7    6.36   14.99
  -5 -17   7   14.69   14.08
  -5 -17   9   15.80   17.06
   5  17  -9   18.33   15.74
  -6   0  -6  917.88  171.50
   6   0   6 1386.83  172.29
  -6   0  -8   52.60   17.38
   6   0   8   55.97   17.76
  -6   0 -10    6.35   19.57
   6   0  10    8.15   22.30
  -6   0 -12    1.65   25.95
   6   0  12   18.37   32.56
  -6   0 -14  404.96   78.59
   6   0  14  447.69   87.78
  -6   0 -16   12.01   40.09
   6   0  16  -15.70   53.75
   6   0  18  124.81   64.57
  -6   0 -18   87.85   51.83
   6   0 -20  125.40  323.79
  -6   0 -20   18.80   48.95
   6   0 -22  166.88  291.60
  -6   0 -22  115.56   61.78
   6   0  22   99.10   71.78
  -6   0  24  -53.57  242.34
  -6   0 -24   40.35   57.59
   6   0  24  -22.28   76.00
   6   2   0  175.75   57.04
  -6  -2   0  134.42   58.79
   6   2  -2   37.69   84.25
   6   2   2   40.67   11.95
  -6  -2  -2   56.33   15.50
  -6  -2   2  -37.09   85.85
  -6  -2   4  343.56  131.65
   6   2  -4  565.45  136.86
   6  -2   6  201.50   34.85
  -6  -2  -6  138.51  118.79
   6   2  -6  234.42  132.77
  -6   2  -6  204.74   34.91
  -6  -2   6   93.77  124.27
  -6  -2  -8    4.06  114.78
   6   2   8  -62.69  189.50
   6   2  -8   62.57  138.39
  -6  -2   8   11.50  122.24
  -6   2  -8   47.91   16.06
   6   2  10   56.82  182.96
  -6  -2 -10  111.25  125.83
   6   2 -10  100.58  150.22
  -6   2 -10   83.30   23.58
   6  -2  10   92.90   24.11
  -6  -2  10    7.78  132.37
   6  -2  12   79.40   25.99
  -6  -2 -12   12.72  143.90
  -6   2 -12   55.83   23.41
   6   2 -12  -25.52  170.31
  -6  -2  12   45.33  146.58
   6   2  12   -5.61  208.56
   6   2  14  249.08  220.56
  -6  -2 -14  -91.28  145.55
  -6   2 -14   13.21   21.55
   6   2 -14   22.79  165.44
   6  -2  14   38.05   24.34
  -6  -2  14  132.98  151.54
  -6  -2  16 -159.35  139.11
   6   2 -16  141.41  167.50
  -6   2 -16   13.86   20.07
   6   2  16   90.02  196.99
   6  -2  16   12.99   22.75
  -6  -2 -16   23.93  125.36
  -6  -2  18   34.43  117.73
   6   2 -18    5.12  152.79
   6   2  18  197.30  185.56
  -6   2 -18   50.58   25.69
  -6  -2 -18 -115.15  130.93
   6  -2  18   44.75   26.63
   6  -2  20   64.24   29.97
  -6  -2  20  -86.58  124.89
   6   2 -20  -39.25  142.23
   6   2  20   49.11  179.43
  -6  -2 -20  -22.78  118.35
  -6   2 -22   53.51   26.55
  -6  -2  22  -13.54  117.05
   6  -2  22   -7.70   28.96
   6   2 -22   79.11  146.09
   6   2  22  113.20  193.02
  -6  -2 -22   55.09  115.16
  -6   2 -24   30.37   28.38
  -6  -2  24   -3.68  120.69
   6   2 -24  104.94  144.69
   6   2  24  -52.44  187.13
  -6  -2 -24   35.25  116.21
   6  -2  24   -8.22   33.65
  -6  -4   0   73.45   14.53
   6   4   0   27.90   13.14
   6   4  -2  630.90  104.63
  -6  -4   2  682.15  104.96
   6   4  -4   55.32   23.67
  -6  -4   4   72.23   23.75
   6   4  -6  260.63   48.11
  -6  -4   6  203.51   47.40
   6   4  -8   67.38   35.72
  -6  -4   8   39.89   33.21
  -6   4  -8   22.50   15.80
   6   4 -10  -12.25   43.78
  -6  -4  10   -6.58   46.98
  -6   4 -10   58.27   20.54
   6  -4  10   52.62   19.69
  -6   4 -12   64.14   20.78
   6  -4  12   39.53   21.36
  -6  -4  12   40.78   58.15
   6   4 -12   88.69   59.31
  -6   4 -14   49.17   23.09
   6  -4  14   62.86   23.16
   6   4 -14   75.85   65.07
  -6  -4  14   13.67   62.65
   6   4 -16  153.68   72.47
  -6   4 -16   36.18   18.55
   6  -4  16   23.09   21.40
  -6  -4  16   83.19   64.84
   6   4 -18  294.46   82.56
  -6   4 -18  166.44   35.72
   6  -4  18  165.22   36.34
  -6   4 -20    7.70   17.11
   6  -4  20   24.45   19.40
   6   4 -20  -29.35   75.52
  -6  -4  20    6.06   58.15
   6   4 -22  139.34   83.60
   6  -4  22   39.46   23.13
  -6   4 -22  121.19   26.52
  -6  -4  22   10.23   58.49
  -6  -4  24    2.02   63.63
  -6   4 -24    8.25   20.06
   6  -4  24   14.51   23.43
  -6  -6   0  520.30   92.07
   6   6   0  636.60   92.12
   6   6  -2  310.32   57.55
  -6  -6   2  386.33   57.65
   6   6  -4  164.37   29.99
  -6  -6   4  106.25   30.98
   6   6  -6   85.73   24.78
  -6  -6   6  100.75   27.43
  -6   6  -8  356.06   60.06
   6  -6   8  391.99   60.53
   6   6  -8  328.37   64.27
  -6  -6   8  353.99   64.39
  -6   6 -10   95.38   20.93
   6   6 -10   38.87   30.48
   6  -6  10   91.56   22.80
  -6  -6  10   56.68   30.36
  -6   6 -12  436.13   64.80
   6  -6  12  340.44   64.38
   6   6 -12  361.83   67.72
  -6  -6  12  317.53   69.22
  -6   6 -14   71.40   19.08
   6  -6  14   55.51   20.56
   6   6 -14   52.27   32.62
  -6  -6  14    2.28   31.20
  -6  -6  16    9.68   27.70
  -6   6 -16   35.21   18.15
   6  -6  16   71.45   22.83
   6   6 -16  -10.21   30.50
   6   6 -18   93.65   35.74
  -6  -6  18  -10.09   32.83
  -6   6 -18  124.58   26.15
   6  -6  18   99.06   23.51
   6   6 -20   66.86   37.67
  -6  -6  20   19.36   32.24
  -6   6 -20   59.75   19.15
   6  -6  20   47.02   22.74
   6   6 -22  -21.63   38.81
   6  -6  22   19.65   19.07
  -6  -6  22   12.20   35.19
  -6   6 -22   41.03   19.58
   6   8  -2  384.33   70.83
  -6  -8   2  486.09   71.10
   6   8  -4  276.27   50.25
  -6  -8   4  302.30   51.57
   6   8  -6   32.46   18.92
  -6  -8   6   53.91   22.44
   6   8  -8   69.76   26.47
  -6  -8   8   24.94   27.32
   6   8 -10   32.62   21.37
  -6  -8  10   28.24   24.64
  -6   8 -10   11.08   14.81
  -6   8 -12   93.82   20.65
   6   8 -12   76.51   27.44
  -6  -8  12   62.67   27.60
   6  -8  12   52.49   21.51
  -6   8 -14  408.15   42.90
   6  -8  14  376.60   43.32
   6  -8  16   20.55   16.56
   6   8 -16    7.76   20.46
  -6  -8  16   11.06   20.82
  -6   8 -16   20.47   14.54
  -6   8 -18   22.62   14.37
   6  -8  18   13.49   16.22
   6   8 -18   34.18   23.59
  -6  -8  18    1.46   20.16
  -6   8 -20   44.38   20.20
   6  -8  20   47.27   22.06
   6   8 -20   72.93   27.07
  -6  -8  20    2.97   23.55
   6  -8  22   51.58   19.79
  -6   8 -22   41.95   20.51
   6   8 -22    7.36   25.46
  -6  -8  22   -9.39   22.48
   6  10  -2  342.64   58.24
  -6 -10   2  352.38   58.34
   6  10  -4  110.83   24.71
  -6 -10   4  111.35   25.85
  -6 -10   6  180.04   31.81
   6  10  -6   90.01   28.39
  -6 -10   8   79.55   24.05
   6  10  -8   83.48   21.95
  -6  10 -10   91.00   25.07
   6 -10  10  107.63   25.32
   6  10 -10  162.25   30.40
  -6 -10  10  192.44   35.08
   6  10 -12   57.63   22.63
  -6 -10  12   69.17   23.93
  -6  10 -12   43.68   17.80
   6 -10  12   52.38   19.04
  -6  10 -14   69.56   20.29
   6  10 -14   84.88   24.03
  -6 -10  14  124.48   27.47
   6 -10  14   41.55   22.16
   6  10 -16   77.29   24.38
  -6 -10  16   64.73   25.91
  -6  10 -16   46.54   22.20
   6 -10  16   84.16   25.10
   6 -10  18   44.08   19.09
   6  10 -18   56.47   23.66
  -6 -10  18   15.90   21.73
  -6  10 -18   61.18   19.55
  -6  10 -20   31.40   15.70
   6 -10  20   23.97   18.07
   6  10 -20   25.73   20.98
  -6 -10  20   10.11   18.88
  -6 -12   2   27.75   14.58
  -6 -12   4   71.74   20.70
   6  12  -4   39.06   16.20
   6  12  -6   28.90   15.05
  -6 -12   6   55.54   20.04
   6  12  -8   81.71   21.83
  -6 -12   8   31.00   20.63
  -6 -12  10   19.72   17.53
   6 -12  10   32.29   15.50
   6  12 -10   72.45   18.77
   6  12 -12   52.60   17.06
  -6 -12  12   24.91   19.63
  -6  12 -12   10.79   11.23
   6 -12  12    8.93   14.11
  -6 -12  14   98.94   28.25
  -6  12 -14   44.13   18.93
   6 -12  14   18.79   18.46
   6  12 -16   37.00   19.85
  -6  12 -16   29.40   14.90
   6 -12  16   42.52   19.66
  -6 -12  16   12.39   18.83
  -6 -12  18   50.76   22.42
   6  12 -18   30.25   18.54
  -6  12 -18   39.99   19.76
   6 -12  18   56.96   21.72
  -6 -14   4  105.35   20.45
   6  14  -4   46.41   19.67
  -6 -14   6   98.53   22.67
   6  14  -6   54.29   20.84
   6  14  -8  114.37   25.54
  -6 -14   8  116.08   28.75
   6  14 -10   49.59   20.02
  -6 -14  10   44.18   21.51
  -6  14 -12   44.55   20.47
   6  14 -12   91.31   23.61
  -6 -14  12   92.56   24.82
   6 -14  12   93.41   21.44
   6 -14  14  141.45   30.30
  -6  14 -14   83.95   24.88
   6  14 -14  188.34   30.16
  -6 -14  14  125.66   29.81
  -6 -16   4    6.45   13.56
   6  16  -6   38.10   17.66
  -6 -16   6   51.99   17.47
   6  16  -8   48.64   18.55
  -6 -16   8   31.88   17.62
   6  16 -10   15.65   14.12
  -6 -16  10   33.69   19.94
   7   1   5  104.30   16.80
  -7  -1  -5   87.87   16.94
   7  -1   7  391.12   61.12
  -7   1  -7  357.97   61.07
  -7  -1  -7  408.52   60.48
   7   1   7  344.71   60.54
   7   1   9   32.01   25.90
  -7   1  -9   58.99   18.95
   7   1  -9  231.59  380.73
   7  -1   9   86.61   19.51
  -7  -1  -9    1.57   20.46
  -7  -1 -11  -10.08   33.10
   7   1  11  -25.59   50.18
   7  -1  11    4.15   20.01
   7   1 -11   23.21  363.43
  -7   1 -13   44.13   20.90
  -7  -1 -13   83.73   48.47
   7   1  13   -4.40   66.11
   7  -1  13   20.86   22.58
  -7  -1  15  -24.46  241.04
  -7  -1 -15  185.64   58.70
   7   1 -15  360.24  315.94
   7   1  15   49.08   71.90
  -7   1 -15   86.53   25.14
   7  -1  15   81.55   29.77
   7  -1  17   73.31   34.47
   7   1 -17  379.33  284.87
  -7  -1  17   46.55  200.79
  -7   1 -17  233.56   37.49
   7   1  17   74.02   77.47
  -7   1 -19   26.70   24.11
   7   1  19  -30.58   78.49
   7  -1  19    8.41   29.38
   7   1 -19 -100.60  242.69
  -7  -1  19   82.18  184.10
  -7  -1 -19  106.89   61.19
   7   1 -21   -9.71  229.39
  -7   1 -21   13.94   26.27
   7  -1  21   -1.44   33.74
   7   1  21  -53.34   92.33
  -7  -1 -21   -2.31   60.07
  -7   1 -23   97.63   36.78
   7   1  23   10.53  101.57
   7  -1  23   58.84   45.16
   7   1 -23  293.28  243.59
  -7  -1 -23  217.64   76.99
  -7  -3   1   69.73   27.42
   7   3   1   84.14   18.25
  -7  -3  -1   94.90   18.45
   7   3  -1   91.61   25.47
   7   3  -3  186.31   55.83
  -7  -3  -3  243.58   37.99
  -7  -3   3  190.33   58.60
   7   3  -5    8.05   58.24
  -7  -3   5   73.95   58.61
  -7   3  -7    9.40    9.53
   7  -3   7    5.25   10.85
   7   3  -7   90.27   76.70
  -7  -3   7   -2.13   67.44
  -7  -3   9   16.03   85.38
  -7   3  -9   44.64   17.54
   7  -3   9   43.49   18.12
   7   3  -9   61.26   91.29
   7  -3  11   74.81   31.04
  -7  -3  11   29.38  106.53
   7   3 -11   80.24  113.91
   7   3 -13  138.72  118.94
  -7   3 -13  153.31   32.20
   7  -3  13  129.79   31.77
  -7  -3  13   -8.96  109.76
   7   3 -15  116.89  110.48
  -7  -3 -15   -9.62  187.85
  -7   3 -15   14.93   16.49
  -7  -3  15  -38.23   98.97
   7  -3  15   17.79   20.05
   7   3 -17  -73.43  112.09
  -7  -3  17    1.99   95.17
  -7   3 -17   -0.30   18.30
   7   3 -19  212.07  118.32
  -7  -3 -19  182.93  158.72
  -7  -3  19  -34.40   91.27
   7   3  19  266.28  298.09
   7  -3  19   54.42   25.89
  -7   3 -19  154.65   27.24
  -7  -3 -21   -2.94  153.12
   7   3 -21   17.24  112.03
  -7  -3  21  -53.16   86.34
  -7   3 -21   15.29   18.97
   7  -3  21   -3.65   21.63
   7   3 -23   69.67  115.25
  -7  -3  23   71.56   94.50
   7   3  23   53.66  271.71
  -7   3 -23   11.01   19.18
  -7  -3 -23  -31.44  146.64
   7  -3  23  -12.29   25.06
  -7  -5   1   52.51   18.26
   7   5   1   62.67   13.34
  -7  -5  -1   61.54   14.71
   7   5  -1   60.44   16.54
   7   5  -3 1001.15  164.58
  -7  -5   3 1088.25  165.03
   7   5  -5  512.54   83.47
  -7  -5   5  491.22   83.76
   7   5  -7   55.18   25.31
  -7  -5   7    9.45   27.41
  -7  -5   9   27.58   33.13
   7  -5   9   69.83   19.35
  -7   5  -9   63.45   19.03
   7   5  -9   25.51   34.39
  -7  -5  11   97.78   51.57
  -7   5 -11  278.46   42.15
   7  -5  11  217.79   42.48
   7   5 -11  190.10   55.00
  -7  -5  13   26.86   52.61
   7   5 -13   56.66   55.51
  -7   5 -15   34.41   17.65
   7  -5  15   57.99   23.64
  -7  -5  15  -19.81   42.52
   7   5 -15   23.48   44.44
  -7   5 -17   39.46   18.67
   7  -5  17   21.53   17.26
   7   5 -17   11.73   48.66
  -7  -5  17    6.91   44.77
   7   5 -19  234.96   75.64
  -7  -5  19   13.27   57.54
  -7   5 -19  281.02   45.44
   7  -5  19  290.78   47.28
  -7  -5  21   46.10   57.29
  -7   5 -21  118.51   30.16
   7  -5  21  110.52   30.16
  -7   5 -23   28.41   18.44
   7   5 -23   23.80   60.44
   7  -5  23    4.71   17.72
  -7  -5  23   21.17   51.16
   7   7  -1   77.81   16.09
  -7  -7  -1   26.51   13.38
  -7  -7   1   51.82   17.65
  -7  -7   3   71.59   18.97
   7   7  -3   31.88   16.25
  -7  -7   5  107.55   28.95
   7   7  -5   99.70   28.09
   7   7  -7   45.72   22.34
  -7  -7   7   51.41   25.46
   7  -7   9   52.58   17.53
   7   7  -9   91.06   27.29
  -7  -7   9   66.50   28.20
  -7   7  -9   44.41   17.36
   7   7 -11   -0.98   23.22
  -7   7 -11   16.89   14.82
   7  -7  11    7.75   14.22
  -7  -7  11   40.26   25.05
   7   7 -13   34.31   24.88
  -7   7 -13   49.60   19.20
  -7  -7  13   24.36   25.20
   7  -7  13   57.02   21.13
   7   7 -15   35.50   28.98
  -7  -7  15    5.26   28.14
  -7  -7  17   12.19   25.69
   7  -7  17   17.07   18.48
   7   7 -17   35.72   29.45
   7   7 -19   28.20   28.91
  -7  -7  19   19.79   24.30
  -7   7 -19   17.60   15.75
   7  -7  19   -2.56   18.95
   7   7 -21   24.41   29.86
  -7  -7  21    7.84   26.20
  -7   7 -21   11.23   17.28
   7  -7  21    9.52   15.87
   7   9  -1  695.59  128.59
  -7  -9   1 1006.25  130.25
   7   9  -3   38.78   17.44
  -7  -9   3   61.94   20.92
   7   9  -5    4.78   16.33
  -7  -9   5   27.00   17.85
   7   9  -7  294.06   47.70
  -7  -9   7  221.46   46.78
   7   9  -9  142.34   32.09
  -7  -9   9  120.29   32.01
   7   9 -11   48.38   19.89
  -7  -9  11   20.01   22.09
  -7   9 -11   42.85   14.37
   7  -9  11   50.28   16.29
   7   9 -13   50.93   22.91
  -7  -9  13   33.55   23.02
  -7   9 -13   54.64   16.95
   7  -9  13   61.46   18.17
  -7   9 -15  123.52   34.07
   7  -9  15  203.85   37.48
   7   9 -15  198.66   39.25
  -7  -9  15  196.40   39.23
   7  -9  17  215.77   38.07
  -7  -9  17   48.13   36.69
   7   9 -17  217.91   41.55
  -7   9 -19   22.93   14.32
   7  -9  19   45.70   18.11
   7   9 -19   37.64   23.43
  -7  -9  19   -3.34   19.19
  -7 -11   1   37.36   15.35
  -7 -11   3  187.39   37.03
   7  11  -3  197.19   36.71
   7  11  -5  113.09   24.21
  -7 -11   5   87.27   26.91
   7  11  -7  130.55   25.24
  -7 -11   7   66.74   24.04
   7  11  -9   20.82   15.10
  -7 -11   9   37.19   18.48
   7  11 -11   50.68   17.44
  -7 -11  11   76.93   25.41
  -7  11 -11   47.89   16.12
   7 -11  11   18.51   13.91
   7  11 -13    5.89   18.24
  -7 -11  13   12.28   19.89
  -7  11 -13   32.99   13.03
   7 -11  13   20.02   16.85
   7  11 -15    0.81   15.61
  -7 -11  15    5.43   19.89
  -7  11 -15   26.30   12.99
   7 -11  15    9.26   15.16
   7  11 -17   63.37   21.71
  -7 -11  17   31.02   22.17
  -7  11 -17   21.06   16.21
   7 -11  17   38.50   20.98
   7  13  -3  348.22   57.33
  -7 -13   3  324.12   57.01
   7  13  -5  149.87   35.38
  -7 -13   5  226.13   36.55
   7  13  -7   17.38   15.18
  -7 -13   7   50.71   21.22
   7  13  -9   37.28   17.51
  -7 -13   9   51.73   20.30
  -7 -13  11   86.17   25.24
   7  13 -11   77.95   21.29
   7  13 -13   33.85   16.81
  -7 -13  13   43.02   20.08
  -7  13 -13   24.78   14.72
   7 -13  13   33.27   14.75
   7  13 -15   13.62   18.72
  -7 -13  15    6.12   21.91
  -7  13 -15   23.32   14.95
   7 -13  15   12.25   14.94
  -7 -15   3   35.99   15.60
   7  15  -5   16.59   13.31
  -7 -15   5   10.35   14.70
   7  15  -7   89.41   21.45
  -7 -15   7   50.52   19.84
   7  15  -9   79.62   20.50
  -7 -15   9   26.95   21.98
   7  15 -11   66.09   21.80
  -7 -15  11   61.55   23.93
   7  17  -5   23.17   17.65
  -7 -17   5   56.36   16.19
  -8   0  -6   95.52   15.39
   8   0   6   64.08   14.58
  -8   0  -8 1802.22  284.04
   8   0   8 1843.80  284.46
  -8   0 -10   27.46   16.54
   8   0  10   32.22   18.19
  -8   0 -12    7.69   17.76
   8   0  12   24.28   21.12
  -8   0 -14   61.82   23.13
   8   0  14   32.54   25.54
  -8   0 -16 1963.13  288.06
   8   0  16 1644.21  289.22
  -8   0 -18   24.26   27.23
   8   0  18   32.86   36.10
  -8   0 -20   29.20   32.13
   8   0  20   -2.49   42.28
  -8   0 -22   38.59   36.46
   8   0  22  -33.92   52.66
   8   0 -22  584.84  383.79
   8   2  -2  166.27  193.83
   8   2  -4  -35.01  198.74
  -8  -2   6  251.20  177.14
   8   2  -6   64.81  206.99
  -8  -2  -6   32.38   12.82
   8   2   6  133.58   21.85
  -8  -2   8   37.72  179.29
  -8  -2  -8   28.61   31.04
   8   2  -8 -218.43  226.24
   8   2   8   42.97   52.34
   8  -2   8   31.74   14.37
   8  -2  10   37.95   18.32
   8   2  10   72.38   89.31
  -8  -2  10  120.68  198.54
   8   2 -10  309.19  236.83
  -8   2 -10   75.18   17.10
  -8  -2 -10  121.00   51.93
   8   2  12  -38.94  106.59
  -8   2 -12   48.43   19.92
   8  -2  12   47.49   20.14
   8   2 -12  -66.06  227.53
  -8  -2 -12   44.22   62.12
  -8  -2  12   66.82  183.62
  -8  -2 -14   71.94   71.52
   8   2 -14  238.69  213.65
  -8   2 -14   57.11   20.87
   8   2  14   63.00  113.43
   8  -2  14  121.47   25.03
  -8  -2  14  -35.27  166.87
  -8  -2 -16    1.04   71.69
   8   2 -16  111.19  198.69
  -8   2 -16    9.42   16.49
   8   2  16   96.93  115.40
   8  -2  16   25.74   17.91
  -8  -2  16 -175.43  158.70
  -8  -2 -18   23.75   72.42
   8   2 -18  -55.69  175.65
  -8   2 -18   21.76   16.74
   8   2  18  -13.49  119.32
   8  -2  18   27.19   19.00
  -8  -2  18   49.87  148.62
   8   2 -20  296.69  194.87
  -8  -2 -20   24.53   79.14
  -8   2 -20    8.95   17.68
   8   2  20  -11.41  122.01
  -8  -2  20   81.44  138.37
   8  -2  20   -3.43   21.61
   8  -2  22   -3.06   23.50
   8   2 -22  -80.56  178.73
  -8  -2 -22   -6.54   80.88
  -8  -2  22  -12.59  135.34
   8   2  22   28.68  135.88
  -8   2 -22   11.17   20.89
   8   4   0  236.74   40.73
  -8  -4   0  241.94   40.71
   8   4   2   93.73   17.12
  -8  -4  -2   94.88   16.97
   8   4  -2   83.25   24.50
  -8  -4   2   68.72   25.29
   8   4  -4 3275.85  479.78
  -8  -4   4 2843.01  479.99
   8   4  -6  105.11   43.70
  -8  -4   6   51.75   44.15
   8   4  -8   36.69   59.49
  -8   4  -8   22.75   12.78
   8  -4   8   29.69   12.68
  -8  -4   8  -22.82   56.85
  -8   4 -10  101.07   23.10
   8   4 -10  156.54   79.46
  -8  -4  10   63.41   71.54
   8  -4  10  125.09   25.76
   8   4 -12 2636.23  447.24
  -8   4 -12 2805.17  427.69
   8  -4  12 2684.18  427.07
   8  -4  14   65.48   21.98
  -8   4 -14   84.43   20.81
   8   4 -14   73.08   84.84
  -8  -4  14   -7.22   67.74
   8  -4  16   76.62   22.01
  -8  -4  16  -38.82   65.01
  -8  -4  18  -15.31   66.32
   8   4 -18  -85.11   81.32
   8   4 -20 1402.63  202.08
  -8   4 -20 1138.88  150.34
   8  -4  20 1158.95  150.81
  -8  -4  22  -25.47   73.19
  -8   4 -22   30.25   17.84
   8  -4  22   -0.41   17.87
   8   4 -22   80.89   89.13
   8   6   0   52.65   15.14
  -8  -6   0   44.68   14.96
  -8  -6  -2  586.93   79.48
   8   6  -2  338.56   81.02
  -8  -6   2  504.83   82.37
   8   6  -4  272.77   53.59
  -8  -6   4  352.97   55.15
   8   6  -6   81.82   27.65
  -8  -6   6   80.81   26.95
   8   6  -8   30.68   26.83
  -8  -6   8   39.49   25.28
  -8   6 -10   26.19   15.07
   8   6 -10   12.43   31.49
  -8  -6  10   26.56   29.35
  -8  -6  12   18.85   30.40
  -8   6 -12   74.86   20.80
   8   6 -12   72.75   34.55
   8  -6  14  404.22   54.90
  -8   6 -14  686.25   58.69
  -8   6 -16   35.80   15.02
   8  -6  16   49.12   17.17
   8   6 -16    5.20   35.70
  -8  -6  16    7.33   33.30
  -8   6 -18   52.54   17.62
   8  -6  18   62.21   22.83
  -8  -6  18    8.94   34.30
   8   6 -18   90.99   42.38
  -8   6 -20   27.43   17.30
   8   6 -20   29.92   44.97
  -8  -6  20  -24.77   36.93
   8  -6  20   22.66   17.26
   8   8   0 2485.90  395.61
  -8  -8   0 2592.36  395.96
   8   8  -2  277.80   46.74
  -8  -8   2  245.29   46.40
  -8  -8   4   65.08   23.51
   8   8  -4   99.16   21.69
   8   8  -6  184.35   41.02
  -8  -8   6  223.71   41.17
   8   8  -8 1602.78  247.34
  -8  -8   8 1521.62  247.66
  -8   8 -10    7.72   12.17
   8   8 -10    0.34   19.84
   8  -8  10   19.05   12.62
  -8  -8  10    6.32   21.85
  -8   8 -12   60.22   15.86
   8   8 -12    8.03   21.18
   8  -8  12   28.03   15.09
  -8  -8  12    8.11   20.85
  -8   8 -14  108.54   20.90
   8   8 -14   55.10   26.45
  -8  -8  14   34.68   24.21
   8  -8  14   70.23   22.24
  -8   8 -16  380.81   83.30
   8  -8  16  700.96   87.14
   8   8 -16  492.09   87.67
  -8  -8  16  491.24   88.28
   8  -8  18  139.04   27.76
  -8   8 -18  150.83   26.57
   8   8 -18  130.50   36.20
  -8  -8  18   18.67   28.03
  -8  -8  20  -10.41   23.64
  -8   8 -20   34.70   15.14
   8  -8  20   43.34   19.50
   8   8 -20   42.19   28.61
  -8 -10   0   25.78   12.59
  -8 -10   2  106.60   20.07
   8  10  -2   46.86   19.27
   8  10  -4   42.19   17.95
  -8 -10   4   37.67   18.34
   8  10  -6  158.66   31.72
  -8 -10   6  170.80   33.29
  -8 -10   8  103.11   30.35
   8  10  -8  137.98   28.05
   8  10 -10   62.85   23.37
  -8 -10  10   81.00   23.55
   8  10 -12   18.05   16.30
  -8 -10  12   17.38   20.10
  -8  10 -12   12.97   10.79
   8 -10  12   17.08   12.90
   8  10 -14   51.68   22.54
  -8  10 -14   51.17   18.11
   8 -10  14   57.48   18.11
  -8 -10  14  104.63   25.63
   8  10 -16   38.17   21.86
  -8 -10  16    1.76   19.90
  -8  10 -16   31.90   15.50
   8 -10  16   87.71   22.29
   8  10 -18    5.01   19.59
  -8 -10  18   -2.47   19.26
   8 -10  18   38.36   20.65
   8  12  -2   21.25   13.20
  -8 -12   2   36.56   14.37
   8  12  -4  853.49  128.21
  -8 -12   4  741.50  127.77
   8  12  -6  119.48   27.05
  -8 -12   6  108.72   27.21
  -8 -12   8   56.47   18.75
   8  12  -8   41.51   16.66
   8  12 -10  303.74   43.01
  -8 -12  10  147.79   41.97
   8 -12  12  403.64   64.99
   8  12 -12  354.59   67.26
  -8 -12  12  367.73   69.58
   8  12 -14   28.43   20.55
   8 -12  14   79.85   20.25
  -8 -12  14   54.22   20.87
  -8  12 -14   28.60   13.57
  -8 -12  16    9.48   18.57
  -8  12 -16   14.42   12.60
   8 -12  16   11.20   13.31
   8  12 -16   37.18   17.45
  -8 -14   2   86.64   21.10
   8  14  -4  240.43   37.20
  -8 -14   4  149.32   37.12
   8  14  -6  253.66   46.37
  -8 -14   6  270.04   47.86
   8  14  -8   20.31   16.32
  -8 -14   8   25.33   18.28
   8  14 -10   55.29   19.94
  -8 -14  10   44.44   19.83
   8  14 -12   34.75   15.36
  -8 -14  12   20.40   17.34
   8  16  -4   28.71   15.82
  -8 -16   4   12.77   11.96
   8  16  -6   84.86   22.18
  -8 -16   6   79.27   23.27
  -8 -16   8  279.39   45.78
   8  16  -8  194.95   41.72
   9  -1   7   63.03   14.10
  -9   1  -7   19.92   12.94
   9   1   7   72.97   14.12
  -9  -1  -9   65.37   19.45
   9  -1   9   86.35   19.34
   9   1   9   53.34   20.20
  -9   1 -11   52.32   17.01
   9  -1  11   53.56   18.86
  -9  -1 -11   23.51   16.11
   9   1  11   23.00   21.97
  -9   1 -13   34.74   16.30
   9  -1  13   32.04   18.50
  -9  -1 -13   56.10   22.01
   9   1  15  168.09   52.06
  -9   1 -15  226.40   37.76
   9  -1  15  222.27   38.87
  -9  -1 -15  142.84   41.68
   9   1 -17  792.88  376.50
  -9   1 -17  252.19   50.44
   9  -1  17  301.02   53.20
  -9  -1 -17  381.58   61.71
   9   1  17  234.23   70.47
   9   1 -19  165.70  296.20
  -9  -1 -19   61.18   37.10
   9   1  19    4.91   54.60
  -9   1 -19   45.36   19.83
   9  -1  19    4.88   22.54
  -9  -1  21  203.91  226.68
   9  -1  21  -20.28   26.69
  -9  -1 -21   70.92   45.42
   9   1  21    9.78   63.09
  -9   1 -21    4.61   19.87
  -9  -3   1   32.92   65.17
   9   3   1   52.67   35.79
  -9  -3  -1    5.94   42.26
   9   3  -1  136.60   60.46
   9   3  -3  836.61  132.88
  -9  -3   3  542.01  132.78
   9   3   3  532.26   91.20
  -9  -3  -3  702.60   92.95
   9   3  -5  251.75  117.36
  -9  -3   5   87.76  104.04
   9   3  -7  216.96  133.86
  -9  -3   7  129.38  121.42
  -9  -3  -9  -85.05  110.73
   9   3  -9  298.24  149.99
  -9   3  -9   34.67   14.73
   9  -3   9   53.27   15.09
  -9  -3   9 -106.53  127.01
  -9  -3 -11  300.75  130.44
  -9   3 -11  330.82   64.89
   9  -3  11  483.54   66.48
   9   3 -11  679.80  171.75
  -9  -3  11   55.70  135.42
  -9  -3 -13  617.93  174.57
   9   3 -13  545.18  202.64
  -9   3 -13 1026.74  125.52
   9  -3  13  675.35  124.72
   9   3  13  153.87  250.32
  -9  -3  13   -8.19  163.36
  -9   3 -15   44.73   18.50
   9  -3  15   42.95   17.51
   9   3 -15  -34.81  137.07
  -9  -3  15  -46.00  107.79
  -9  -3 -15   39.88  101.11
   9   3  17  -29.20  192.49
  -9   3 -17   18.10   14.31
   9  -3  17   25.30   17.91
   9   3 -17  133.47  137.35
  -9  -3  17  -18.21   98.23
  -9  -3 -17  107.90  102.47
  -9  -3  19    5.73   97.93
   9   3  19  -16.58  199.79
  -9   3 -19   31.52   18.45
   9   3 -19  -47.77  137.29
   9  -3  19   13.51   19.16
  -9  -3 -19   67.89  106.65
  -9  -3  21  -12.52   96.11
   9   3  21   40.31  206.10
   9   3 -21  -36.61  139.73
  -9   3 -21   49.55   19.35
   9  -3  21   39.07   20.30
  -9  -3 -21  109.54  108.45
   9   5   1  112.08   20.68
  -9  -5  -1  113.60   23.61
   9   5  -1  112.85   24.73
  -9  -5   1   88.03   24.10
   9   5   3  650.84   91.27
  -9  -5  -3  509.78   91.28
   9   5  -3  641.20   95.43
  -9  -5   3  534.06   94.42
   9   5  -5  296.59   54.94
  -9  -5   5  254.52   53.98
   9   5  -7   87.83   37.80
  -9  -5   7   94.54   39.53
   9  -5   9   81.96   18.49
   9   5  -9   56.25   43.67
  -9  -5   9   42.29   43.94
  -9   5 -11   70.67   18.44
   9  -5  11   72.81   18.30
   9   5 -11  156.92   53.87
  -9  -5  11   25.70   46.10
  -9   5 -13  335.66   56.29
   9  -5  13  420.55   57.60
   9   5 -13  227.71   79.14
  -9  -5  13   30.52   70.81
   9  -5  15   45.27   15.74
   9   5 -15   71.63   59.37
  -9  -5  15    2.27   49.82
  -9   5 -15   28.90   14.76
  -9   5 -17   27.69   15.18
   9  -5  17   20.02   19.28
   9   5 -17   -7.63   62.94
  -9  -5  17   -3.93   48.38
  -9   5 -19   20.86   17.43
   9  -5  19   24.19   17.34
   9   5 -19  100.05   70.75
  -9  -5  19  -37.91   54.40
  -9   5 -21   33.84   15.77
   9  -5  21    8.23   18.05
   9   5 -21  -60.48   71.42
  -9  -5  21   11.90   48.89
   9   7   1  924.73  127.53
  -9  -7  -1  819.28  127.36
   9   7  -1  817.46  127.87
  -9  -7   1  659.61  127.59
   9   7  -3   27.99   19.50
  -9  -7   3   32.20   20.21
   9   7  -5   42.52   19.56
  -9  -7   5   56.80   23.25
   9   7  -7  194.90   41.57
  -9  -7   7  221.09   41.53
   9   7  -9  111.93   29.61
  -9  -7   9   80.89   28.09
  -9   7 -11   24.95   11.50
   9  -7  11   13.22   12.28
   9   7 -11   -1.04   21.01
  -9  -7  11   45.12   25.30
  -9   7 -13   39.68   13.82
   9  -7  13   28.64   14.84
   9   7 -13   38.71   27.48
  -9  -7  13   12.65   24.45
  -9  -7  15   14.82   38.13
  -9   7 -15  215.27   38.05
   9   7 -15  203.81   46.75
  -9   7 -17  455.70   50.00
   9  -7  17  395.58   48.46
   9   7 -17  220.32   55.94
   9  -7  19   36.77   18.40
   9   7 -19   23.07   32.55
  -9  -7  19   -5.99   32.27
   9   9  -1  106.95   18.49
  -9  -9  -1   33.43   16.10
   9   9  -3   76.63   19.79
  -9  -9   3   55.70   18.37
   9   9  -5   35.88   19.21
  -9  -9   5  142.92   22.93
  -9  -9   7   19.96   19.51
   9   9  -7   96.42   22.28
   9   9  -9   50.95   18.25
  -9  -9   9    0.32   20.22
   9   9 -11   10.16   18.10
   9  -9  11   11.91   11.76
  -9  -9  11   15.84   19.55
  -9   9 -13   13.02   10.93
   9   9 -13   21.27   19.26
   9  -9  13   32.88   15.51
  -9  -9  13   26.32   19.80
   9   9 -15   93.52   25.01
  -9   9 -15   12.40   12.16
   9  -9  15   36.62   15.94
  -9  -9  15   16.89   19.90
   9   9 -17   18.72   24.26
  -9  -9  17   10.24   24.47
   9  11  -1  130.72   24.49
  -9 -11   1  118.33   26.33
   9  11  -3  153.50   32.42
  -9 -11   3  212.19   35.46
   9  11  -5  224.38   41.08
  -9 -11   5  217.22   41.46
   9  11  -7   29.11   14.46
  -9 -11   7   41.87   17.14
   9  11  -9   49.87   17.17
  -9 -11   9    5.67   20.87
   9  11 -11  313.01   64.24
  -9 -11  11  417.77   64.74
  -9  11 -13  109.36   27.71
   9  11 -13  194.28   33.25
  -9 -11  13  145.95   33.98
   9 -11  13  147.96   28.61
   9  11 -15   68.67   22.99
  -9 -11  15   34.11   22.79
  -9  11 -15   59.76   18.06
   9 -11  15   59.79   18.88
  -9 -13   1  108.17   22.69
   9  13  -3  183.44   31.34
  -9 -13   3  130.92   31.10
   9  13  -5   79.36   19.29
  -9 -13   5   60.50   21.11
   9  13  -7   33.21   16.70
  -9 -13   7   69.81   21.21
  -9 -13   9   30.19   17.63
   9  13  -9   11.99   13.15
   9  13 -11   52.38   17.35
  -9 -13  11   28.62   18.22
   9  13 -13   37.81   18.66
  -9 -13  13   18.82   21.93
   9 -13  13    9.34   13.01
   9  15  -3   16.20   14.87
  -9 -15   3   36.72   14.64
   9  15  -5   73.06   20.43
  -9 -15   5   39.94   17.51
   9  15  -7  138.19   29.47
  -9 -15   7  139.79   32.31
   9  15  -9  110.24   28.05
  -9 -15   9  119.92   30.12
 -10   0  -8   69.72   15.86
  10   0   8  107.57   18.35
 -10   0 -10  820.22  144.16
  10   0  10 1069.02  145.30
 -10   0 -12   14.30   12.15
  10   0  12   12.70   14.55
 -10   0 -14  169.10   31.42
  10   0  14  160.93   32.21
 -10   0 -16    4.16   14.57
  10   0  16   -2.97   18.56
  10   0  18   49.00   26.31
 -10   0 -18   97.51   24.77
  10   0  20    9.44   25.77
 -10   0 -20    3.89   20.85
  10   2   6  109.20   18.09
  10   2  -8  -13.81  324.80
 -10  -2  -8   39.60   11.34
  10  -2   8   30.55   11.27
  10   2   8   24.81   13.24
 -10   2 -10   92.34   22.65
  10  -2  10  185.85   25.67
 -10  -2 -10   90.39   24.59
  10   2  10  149.67   33.17
 -10  -2 -12   52.19   26.10
  10   2  12   41.81   42.26
  10   2 -12 -110.30  278.50
 -10  -2  12   17.92  196.69
  10   2 -14  209.14  263.35
 -10  -2 -14  138.92   40.00
 -10  -2  14 -153.56  176.12
 -10   2 -14  135.88   27.55
  10  -2  14  121.26   26.51
  10   2  14   91.58   55.61
 -10  -2  16 -121.91  167.51
  10   2 -16  -48.60  243.35
 -10  -2 -16   48.61   43.24
  10   2  16   21.36   64.26
  10   2  18   15.05   75.71
 -10   2 -18   50.02   17.48
  10  -2  18   20.23   17.88
 -10  -2 -18   55.29   45.87
  10   2 -18  -41.82  230.49
  10   2  20  -24.03   86.10
 -10   2 -20   26.24   17.11
  10  -2  20    4.17   17.51
  10   2 -20   83.99  229.22
 -10  -2 -20   68.72   50.62
 -10  -4   0   40.15   24.08
  10   4   0   20.11   22.15
  10   4   2   38.33   14.38
 -10  -4   2   37.43   44.04
 -10  -4  -2   39.93   14.80
  10   4   4  197.02   29.15
 -10  -4  -4  165.36   29.07
  10   4  -4  237.40   65.23
 -10  -4   4  188.08   65.18
  10   4  -6  491.52   96.32
 -10  -4   6  182.48   84.86
 -10  -4   8   12.46   73.84
 -10  -4  10  -66.36   78.64
 -10   4 -10   92.68   21.93
  10  -4  10  156.47   24.94
  10   4 -10  241.06   93.50
 -10  -4  12  -56.89   79.23
 -10   4 -12   78.28   19.27
  10  -4  12   86.18   21.00
  10   4 -12  110.55   94.45
  10  -4  14   67.61   18.20
  10   4 -14   94.86   98.30
 -10  -4  14   29.47   75.46
 -10   4 -14   67.79   18.28
 -10   4 -16   14.46   13.00
  10   4 -16   56.52   97.25
  10  -4  16   51.13   17.65
 -10  -4  16  -79.24   79.63
  10   4 -18   27.15  102.26
 -10   4 -18   64.51   20.43
  10  -4  18   37.55   17.42
 -10  -4  18  -15.41   74.81
 -10  -4 -18    9.59  136.84
  10   4 -20  133.67  111.02
 -10   4 -20   33.05   15.72
 -10  -4 -20   25.66  134.14
  10  -4  20   21.03   18.41
 -10  -4  20    2.50   76.03
  10   6   0  137.38   25.25
 -10  -6   0  109.75   26.51
  10   6   2  196.88   30.96
 -10  -6  -2  153.44   30.78
  10   6  -2  173.33   34.24
 -10  -6   2  189.99   34.83
  10   6  -4   67.24   23.60
 -10  -6   4   82.68   23.99
  10   6  -6   43.51   22.52
 -10  -6   6   27.31   25.03
 -10  -6   8   46.08   27.74
  10   6  -8  100.99   31.58
  10   6 -10   70.00   33.73
 -10  -6  10   24.34   30.90
  10  -6  10   91.41   18.32
  10   6 -12   19.64   35.61
 -10  -6  12   21.86   34.88
  10   6 -14  102.47   46.08
 -10   6 -14  136.69   25.50
  10  -6  14  111.50   26.49
 -10  -6  14   38.66   41.96
  10   6 -16   26.13   45.87
 -10  -6  16    7.99   41.67
  10  -6  16   32.72   16.71
  10  -6  18   50.22   19.37
  10   6 -18   13.10   49.53
 -10   6 -18   78.77   18.55
 -10  -6  18   38.89   43.84
 -10   6 -20   65.89   19.16
  10  -6  20   45.48   20.85
  10   6 -20   69.17   55.95
 -10  -6  20  -40.48   48.93
  10   8   0  131.79   18.90
 -10  -8   0   23.71   17.06
  10   8  -2   22.41   14.09
 -10  -8   2   45.94   17.15
  10   8   2   28.23   12.21
 -10  -8   4   34.72   19.02
  10   8  -4   90.34   21.73
  10   8  -6   54.64   18.71
 -10  -8   6   39.45   21.17
  10   8  -8   34.26   19.82
 -10  -8   8   42.83   20.92
  10   8 -10   69.67   23.04
 -10  -8  10   35.83   22.47
 -10   8 -12   36.82   12.49
  10  -8  12   19.66   11.93
  10   8 -12   28.52   21.57
 -10  -8  12   15.69   20.17
  10  -8  14   59.41   15.65
 -10   8 -14   55.69   16.71
  10   8 -14   42.03   24.57
 -10  -8  14   -1.47   22.20
 -10  -8  16   -7.90   23.67
  10   8 -16    1.16   26.54
 -10  -8  18   18.57   25.73
  10  -8  18   53.87   20.27
  10   8 -18   40.42   30.44
  10  10   0  105.70   22.50
 -10 -10   0  117.79   23.49
  10  10  -2  224.50   27.78
 -10 -10   2   55.18   25.25
  10  10  -4  195.93   36.09
 -10 -10   4  201.34   36.54
  10  10  -6  395.07   67.10
 -10 -10   6  400.13   69.81
  10  10  -8   53.16   21.09
 -10 -10   8   74.44   21.26
  10  10 -10  595.24   93.06
 -10 -10  10  518.58   93.30
  10  10 -12   29.15   19.93
  10 -10  12   32.20   13.63
 -10 -10  12   32.77   19.91
 -10  10 -14   15.03   11.69
  10  10 -14   54.06   21.43
 -10 -10  14   15.05   18.96
  10 -10  16   71.14   18.57
  10  10 -16   77.73   24.64
 -10  10 -16   51.87   16.43
 -10 -10  16   21.94   20.53
 -10 -12   0    8.67   10.67
  10  12  -2   69.32   19.47
 -10 -12   2   70.00   17.97
  10  12  -4   97.29   21.10
 -10 -12   4   50.50   20.89
  10  12  -6   44.82   17.01
 -10 -12   6   32.97   16.24
  10  12  -8    8.95   13.53
 -10 -12   8   35.62   17.86
 -10 -12  10   19.29   25.71
  10  12 -10  188.03   28.16
  10  12 -12   73.04   22.68
 -10 -12  12   42.55   20.95
 -10 -12  14   82.03   22.26
 -10  12 -14    1.36   12.23
  10 -12  14    6.01   11.72
  10  12 -14   87.63   20.62
  10  14  -2   74.21   19.93
 -10 -14   2   95.58   21.50
 -10 -14   4   88.72   20.36
  10  14  -4   54.82   19.23
  10  14  -6  170.77   33.13
 -10 -14   6  143.80   33.56
  10  14  -8  151.03   31.94
 -10 -14   8  137.69   30.56
  10  14 -10  127.20   27.72
 -10 -14  10  122.96   28.76
  11   1   7  105.19   18.04
 -11   1  -9   65.34   15.03
  11  -1   9   71.10   14.73
 -11  -1  -9   58.71   13.98
  11   1   9   97.35   16.13
 -11   1 -11  295.79   47.40
  11  -1  11  267.39   46.40
 -11  -1 -11  272.45   46.09
  11   1  11  290.64   46.86
 -11   1 -13   54.38   17.19
  11  -1  13  105.90   20.37
  11   1  13   60.84   21.31
 -11  -1 -13  103.25   18.77
 -11   1 -15   53.60   13.57
  11  -1  15   26.82   15.68
 -11  -1 -15   20.51   16.83
  11   1  15   -2.69   19.51
  11   1  17    1.72   26.12
 -11   1 -17   34.90   15.43
  11  -1  17   19.26   15.38
 -11  -1 -17   12.04   18.47
  11   1 -19  354.24  377.92
  11   1  19   31.51   36.65
  11  -1  19   26.49   20.22
 -11   1 -19   84.34   20.00
 -11  -1 -19  107.37   26.94
 -11  -3   1  -50.09  138.06
  11   3   1  211.26  140.01
  11   3  -1  174.65  154.20
  11   3   3   88.82  114.56
 -11  -3   3  181.40  146.40
  11   3  -3   21.01  168.69
  11   3  -5   34.56  178.02
 -11  -3   5 -116.49  146.85
  11   3  -7  403.48  185.96
 -11  -3  -7   50.78    9.41
 -11  -3   7   38.53  141.24
  11   3   7   98.44   22.70
  11   3  -9  119.82  180.32
  11  -3   9  211.97   36.99
 -11  -3   9   -2.29  137.24
  11   3   9  281.70   74.57
 -11  -3  -9  234.48   41.33
  11   3 -11  -37.78  179.19
  11   3  11   -9.12   79.41
 -11  -3 -11   32.95   33.35
 -11   3 -11   37.17   12.63
  11  -3  11   28.99   12.02
 -11  -3  11   28.37  128.92
  11   3 -13   77.94  174.97
  11  -3  13   49.17   14.74
  11   3  13  -37.29   96.49
 -11  -3  13  -54.62  121.49
 -11  -3 -13   15.53   41.08
 -11   3 -13   40.00   15.00
  11   3 -15   40.45  162.52
  11  -3  15   73.54   23.69
  11   3  15  -24.13  113.38
 -11  -3  15   12.51  117.55
 -11  -3 -15  153.39   58.06
 -11  -3 -17   36.56   60.85
 -11   3 -17   17.08   15.31
  11  -3  17   27.64   15.93
 -11  -3  17   10.27  117.98
  11   3  17   27.90  125.78
  11   3 -17   30.49  162.47
 -11  -3 -19    9.33   63.28
 -11   3 -19   17.40   13.11
  11  -3  19   25.69   17.55
 -11  -3  19   55.88  112.77
  11   3  19   -4.53  139.55
  11   3 -19  -69.56  161.14
  11   5   1  222.91   41.42
 -11  -5  -1  230.95   41.01
  11   5  -1  264.63   43.08
 -11  -5   1  271.73   44.75
 -11  -5  -3   34.72   11.54
 -11  -5   3   41.06   26.79
  11   5   3   22.81    8.86
  11   5  -3   50.15   25.96
  11   5  -5    9.82   32.54
 -11  -5   5   33.51   36.94
 -11  -5   7   61.13   51.74
  11   5  -7  280.44   57.58
 -11  -5   9   54.71   61.29
  11   5  -9  413.15   72.35
 -11   5 -11   62.34   14.97
  11  -5  11   64.53   15.85
  11   5 -11   14.98   62.82
 -11   5 -13   28.63   12.21
  11   5 -13   78.96   68.24
  11  -5  13   32.74   13.42
 -11  -5  13   -1.21   51.49
  11  -5  15  155.14   37.74
  11   5 -15  178.97   86.01
 -11  -5  15  -33.18   62.55
  11  -5  17   29.42   14.52
 -11  -5  17   -6.63   55.09
 -11   5 -17   29.44   14.28
 -11   5 -19   36.86   16.28
 -11  -5  19   15.99   61.07
  11  -5  19   43.18   19.66
  11   5 -19   66.17   81.97
  11   7  -1   52.03   18.80
 -11  -7   1   39.62   17.25
  11   7   1   76.05   15.75
 -11  -7  -1   61.77   14.86
  11   7  -3   37.78   21.24
 -11  -7   3   23.25   21.82
  11   7  -5   58.29   20.33
 -11  -7   5   55.60   20.74
  11   7  -7   28.13   20.76
 -11  -7   7   73.75   24.64
  11   7  -9    8.63   22.77
 -11  -7   9   15.78   22.93
 -11  -7  11   -8.32   23.76
  11  -7  11   25.35   12.96
  11   7 -11   44.26   26.42
  11   7 -13   30.63   28.23
 -11  -7  13    1.76   25.80
 -11   7 -13   13.95   10.40
  11  -7  13   33.46   14.33
  11   7 -15   18.18   31.91
 -11  -7  15   -3.73   30.63
 -11   7 -15   16.57   11.60
  11  -7  15   38.62   15.47
  11   7 -17   -8.85   33.69
 -11  -7  17  -10.86   30.97
 -11   7 -17   30.71   17.36
  11   9   1   59.34   15.04
 -11  -9  -1   46.54   13.71
  11   9  -1   53.92   15.25
 -11  -9   1   44.14   15.53
  11   9  -3  120.85   26.71
 -11  -9   3  161.78   29.33
  11   9  -5  160.60   37.05
 -11  -9   5  224.99   37.21
  11   9  -7   40.27   15.94
 -11  -9   7   29.44   19.14
  11   9  -9   29.12   18.59
 -11  -9   9   39.52   19.10
  11   9 -11  287.20   48.06
 -11  -9  11  208.54   46.50
 -11   9 -13  136.18   26.76
 -11  -9  13   58.22   29.08
  11   9 -13  121.92   33.04
 -11   9 -15   22.91   12.73
  11  -9  15    9.60   13.34
  11   9 -15    8.21   20.33
 -11  -9  15    2.09   19.85
  11  11  -1   56.24   13.88
  11  11   1   12.91   11.82
 -11 -11  -1   22.84   11.26
 -11 -11   1   56.22   15.31
  11  11  -3   39.17   15.42
 -11 -11   3   51.98   17.76
 -11 -11   5   48.55   16.23
  11  11  -5   22.42   12.72
  11  11  -7   16.46   14.25
 -11 -11   7   16.87   18.40
  11  11  -9   19.14   17.22
 -11 -11   9   16.47   15.77
  11  11 -11   10.44   14.95
 -11 -11  11   17.85   19.68
  11  11 -13   60.31   21.68
  11 -11  13   16.59   13.21
 -11 -11  13   36.04   20.20
  11  13  -1  374.68   54.72
 -11 -13   1  266.12   55.11
  11  13  -3   38.35   15.05
 -11 -13   3   55.71   17.36
  11  13  -5   32.60   16.07
 -11 -13   5   24.15   16.99
  11  13  -7  131.47   27.02
 -11 -13   7  107.24   26.63
  11  13  -9   47.45   17.40
 -11 -13   9   60.26   19.94
 -11 -15   1   20.79   12.02
 -12   0 -10   47.98   13.60
  12   0  10   74.57   14.68
 -12   0 -12  656.27  109.95
  12   0  12  745.96  111.00
 -12   0 -14   18.80   10.79
  12   0  14    4.22   12.86
 -12   0 -16   33.09   13.48
  12   0  16    3.72   14.82
 -12   0 -18   30.55   15.18
  12   0  18   19.38   19.55
 -12  -2  -8   33.97    8.01
  12   2   8   34.63    8.24
 -12   2 -10   53.00   12.22
  12   2  10   33.52   12.76
 -12  -2 -10   44.86   11.66
 -12  -2 -12   14.72   11.34
 -12   2 -12   47.57   12.73
  12  -2  12   27.93   12.09
  12   2  12    8.48   15.51
  12  -2  14   17.00   12.46
  12   2  14   -7.01   23.43
  12   2 -14  237.21  320.71
 -12  -2 -14   19.75   15.16
 -12   2 -14   30.39   11.48
 -12  -2 -16   23.97   19.43
 -12   2 -16   53.65   15.85
  12  -2  16   29.21   16.05
  12   2  16  -14.55   36.54
  12   2 -16   92.94  283.76
 -12  -2 -18   12.59   25.02
 -12   2 -18    7.55   12.63
  12  -2  18   37.15   17.55
  12   2  18   21.41   47.42
 -12  -2  18  -16.19  179.33
 -12  -4   0 1172.77  245.78
  12   4   0 1823.26  245.62
  12   4   2   78.11   26.54
 -12  -4   2  -22.06   66.23
 -12  -4  -2   44.00   37.39
  12   4  -2   54.71   63.06
 -12  -4  -4   25.07   17.07
 -12  -4   4  -18.96   78.63
  12   4   4    6.70    7.33
  12   4  -4  -15.64   77.88
  12   4  -6   57.95   97.31
 -12  -4  -6   23.89    4.09
 -12  -4   6   43.82   83.86
  12   4  -8 1769.26  170.48
 -12  -4   8  -30.53  107.88
  12   4 -10  233.42  119.00
 -12  -4  10  -51.08   83.87
  12   4 -12  107.49  115.17
 -12   4 -12   31.42   11.93
  12  -4  12   31.30   11.79
 -12  -4  12  -50.85   82.72
 -12  -4 -12   62.34   79.68
  12  -4  14   62.96   16.77
  12   4 -14   25.44  119.13
 -12   4 -14   40.16   15.46
 -12  -4  14   27.33   82.79
 -12  -4 -14   24.74   84.27
  12   4  16   87.43  261.66
 -12  -4 -16  568.82  134.28
  12   4 -16  578.55  172.57
 -12   4 -16  537.60   85.82
  12  -4  16  564.40   85.80
 -12  -4  16   10.10  117.79
  12   4 -18 -140.25  126.77
 -12  -4 -18 -107.81   94.20
 -12  -4  18  -42.34   85.02
  12   6   0    6.71   12.98
 -12  -6   0   18.40   12.77
 -12  -6  -2   32.73   12.98
  12   6  -2   18.85   17.46
 -12  -6   2   29.99   18.97
  12   6   4   57.84   10.45
 -12  -6  -4   39.69   11.05
  12   6  -4   29.94   21.73
 -12  -6   4   12.55   20.48
  12   6  -6   12.50   24.39
 -12  -6   6   32.48   26.04
  12   6  -8   13.81   30.17
  12   6 -10   30.88   36.72
 -12  -6  10  -32.01   37.72
  12   6 -12   55.33   44.30
 -12   6 -12    0.66    9.31
  12  -6  12   15.14   10.04
 -12  -6  12   -9.41   39.62
  12   6 -14   21.40   48.66
 -12   6 -14   39.04   14.85
  12  -6  14   44.24   14.12
 -12  -6  14   10.33   44.83
  12   6 -16   31.93   59.27
 -12   6 -16   16.29   13.34
  12  -6  16   27.07   15.63
 -12  -8   0   21.86   12.13
  12   8   0   15.59    9.58
  12   8   2  182.77   28.17
 -12  -8  -2  122.05   28.76
  12   8  -2  165.39   31.54
 -12  -8   2  178.81   31.21
 -12  -8  -4  965.87  143.62
  12   8  -4  854.31  145.92
 -12  -8   4  852.99  146.19
  12   8  -6   72.22   21.59
 -12  -8   6   67.54   20.63
  12   8  -8   21.85   17.66
 -12  -8   8   14.61   17.48
  12   8 -10   28.84   20.71
 -12  -8  10   23.76   21.16
  12  -8  12  588.98   58.18
  12   8 -12  462.81   66.02
 -12  -8  14   -8.60   25.45
 -12   8 -14   93.11   18.33
  12  -8  14  101.03   20.99
  12   8 -14  115.75   33.88
  12   8 -16   31.37   27.09
 -12  -8  16   26.42   25.69
 -12   8 -16   23.07   12.21
  12  -8  16   12.16   12.87
  12  10   0   29.81   12.24
 -12 -10   0   41.98   14.86
 -12 -10   2   48.83   13.97
 -12 -10  -2   65.13   13.91
  12  10   2   14.37   10.74
  12  10  -2   17.12   12.57
  12  10  -4  124.44   27.33
 -12 -10   4  162.94   32.32
  12  10  -6   56.11   17.44
 -12 -10   6   17.40   16.00
  12  10  -8   30.70   16.03
 -12 -10   8   26.88   18.81
  12  10 -10   53.99   21.55
 -12 -10  10   52.76   21.17
  12  10 -12   21.22   18.46
 -12 -10  12   -4.35   17.72
  12  12   0  357.27   58.65
 -12 -12   0  342.27   58.71
 -12 -12  -2   92.99   20.53
  12  12  -2  106.06   22.42
 -12 -12   2  103.92   23.67
  12  12  -4   17.95   13.35
 -12 -12   4   13.63   13.01
  12  12  -6   87.07   23.22
 -12 -12   6  135.96   26.62
  12  12  -8  225.58   43.09
 -12 -12   8  233.16   45.16
  12  12 -10  127.09   29.11
 -12 -12  10  103.97   26.56
  12  14   0   26.84   14.20
 -12 -14   0   27.15   12.23
 -12 -14   2   76.63   18.43
  12  14  -2   63.96   20.01
 -13  -1  -9   14.73    6.59
  13   1   9   26.76    7.66
 -13   1 -11  124.83   24.00
  13  -1  11  184.14   25.44
 -13  -1 -11  104.84   22.98
  13   1  11  156.39   25.30
  13  -1  13   38.89   12.60
 -13  -1 -13   31.97   11.70
 -13   1 -13   64.57   14.24
  13   1  13   33.88   14.19
 -13  -1 -15   59.41   16.20
 -13   1 -15   70.65   16.18
  13  -1  15   79.54   18.65
  13   1  15   39.72   17.40
 -13   1 -17   13.73   11.76
  13  -1  17    4.33   14.67
 -13  -1 -17   10.44   13.09
  13   1  17   35.13   19.60
  13   3  -3 -128.09  252.97
  13   3   7  371.13   57.75
  13   3  -7  423.03  260.03
 -13  -3   7 -157.10  174.74
  13   3  -9  530.21  258.48
 -13  -3  -9  517.68   80.89
 -13  -3   9  -63.20  172.95
  13   3   9  520.67   81.48
 -13  -3  11  -76.48  143.22
  13   3 -11 -251.88  231.90
 -13  -3 -13   10.08   15.07
  13   3  13   12.67   39.44
 -13   3 -13    8.09    9.54
  13   3 -13  153.03  218.77
  13  -3  13   26.67   12.25
 -13  -3  13 -101.61  144.46
 -13   3 -15   88.79   17.49
  13   3 -15  179.92  216.74
  13   3  15   40.60   55.13
  13  -3  15   32.77   14.85
  13   3 -17  126.88  221.63
  13  -3  17  153.51   34.61
  13   3  17   31.87   76.76
  13   5  -1    3.03   23.17
 -13  -5  -1   66.29   21.52
 -13  -5   1   33.22   30.60
  13   5   1   38.35   17.34
  13   5  -3   33.18   35.71
  13   5   3   14.56    9.68
 -13  -5   3   29.30   39.86
 -13  -5  -3   32.54   11.63
  13   5  -5   85.79   51.61
 -13  -5  -5   52.98   12.24
 -13  -5   5   -5.27   46.35
  13   5  -7  178.81   66.42
 -13  -5   7   -3.91   52.56
 -13  -5   9    7.07   55.68
 -13  -5  11  -18.08   66.95
  13   5 -11    1.37   74.00
 -13  -5  13  -15.63   67.02
 -13   5 -13   10.16    8.89
  13  -5  13   24.66   12.80
  13   5 -13   65.67   79.05
 -13  -5  15   54.40   68.25
 -13   5 -15   21.17   11.99
  13  -5  15   57.29   16.48
  13   5 -15   13.23   88.28
  13   7   1   15.70   11.08
 -13  -7  -1   15.76   10.01
  13   7  -1   18.80   12.90
 -13  -7   1    3.27   12.66
  13   7   3  262.64   42.16
 -13  -7  -3  267.15   41.70
  13   7  -3  259.50   45.07
 -13  -7   3  201.15   44.44
 -13  -7  -5  237.90   37.01
  13   7  -5  250.60   42.64
 -13  -7   5  158.14   42.51
 -13  -7   7   34.01   22.43
  13   7  -7   94.87   26.12
  13   7  -9    2.31   23.69
 -13  -7   9  -12.88   24.81
  13   7 -11   36.10   30.77
 -13  -7  11    9.96   29.85
  13  -7  13  103.60   19.39
 -13  -7  13  -10.66   35.94
  13   7 -13  124.38   42.27
  13   7 -15  -12.10   42.73
 -13  -7  15   17.20   36.82
 -13   7 -15   31.40   12.04
  13  -7  15   30.19   13.29
  13   9   1   84.66   18.91
 -13  -9  -1  101.81   19.00
  13   9  -1   91.05   18.84
 -13  -9   1   65.63   20.22
  13   9  -3   72.17   27.63
 -13  -9   3   34.24   26.19
  13   9  -5   73.35   20.52
 -13  -9   5   96.47   23.02
  13   9  -7   33.23   17.19
 -13  -9   7   20.05   16.69
  13   9  -9   29.89   17.51
 -13  -9   9   18.60   17.97
 -13  -9  11  101.49   31.56
  13   9 -11  157.73   32.77
  13   9 -13   41.13   23.45
 -13  -9  13   20.84   22.63
  13  11   1  236.68   32.22
 -13 -11  -1  141.23   29.76
  13  11  -1  159.52   31.60
 -13 -11   1  137.22   31.70
 -13 -11   3   24.88   14.12
 -13 -11  -3   26.69   10.42
  13  11  -3   39.92   13.28
  13  11  -5   31.28   14.46
 -13 -11   5   15.67   17.39
  13  11  -7  108.25   26.68
 -13 -11   7  110.70   25.72
  13  11  -9   54.08   19.98
 -13 -11   9   99.56   24.46
  13  13   1   13.43   13.15
 -13 -13  -1   29.54   13.30
  13  13  -1   41.03   15.29
  13  13  -3   44.78   16.27
 -13 -13   3   24.45   15.87
  14   0  10   97.71   18.56
 -14   0 -12   43.03   11.83
  14   0  12   25.45   10.06
  14   0  14  212.45   37.91
  14   0  16    7.80   13.77
 -14  -2 -10  117.27   21.35
  14   2  10  128.95   21.34
  14   2  12   14.32   10.84
 -14   2 -12   19.02    9.00
  14  -2  12   35.99   10.14
 -14   2 -14   73.63   16.95
  14  -2  14   54.41   16.63
  14   2 -16  110.14  353.15
  14  -2  16   18.77   13.60
 -14   2 -16   27.01   11.73
  14   4   0  -86.23   94.53
 -14  -4   0   -1.22   88.92
  14   4   2  191.12   77.66
  14   4  -2  168.89  108.99
 -14  -4   2   23.69   97.59
 -14  -4   4   76.29   99.61
  14   4   4    9.17   47.58
 -14  -4   6 -103.17  107.98
  14   4  -6  -17.60  131.46
 -14  -4  -8   18.33    3.16
 -14  -4   8    6.79  101.18
  14   4  -8   29.30  133.33
 -14  -4  10  -40.15  104.96
  14   4 -10  147.81  147.15
  14  -4  12   25.99    9.98
 -14  -4  12    2.79  100.89
  14   4 -12   65.31  141.13
 -14  -4  14  -30.75   96.53
 -14   4 -14   33.76   12.41
  14  -4  14   10.01   10.62
  14   4 -14   18.77  151.32
  14   6   0   77.25   19.95
 -14  -6   0  100.02   21.80
  14   6   2  319.51   43.16
 -14  -6  -2  254.91   42.53
  14   6  -2  223.26   47.08
 -14  -6   2  145.27   47.11
  14   6  -4   35.72   27.81
 -14  -6   4   44.46   30.16
  14   6   4   66.05   13.15
 -14  -6  -4   75.08   13.75
  14   6  -6   26.72   36.32
 -14  -6   6   37.96   39.46
  14   6  -8   19.18   43.15
 -14  -6   8  -16.38   39.83
  14   6 -10   79.13   55.88
  14   6 -12   71.41   63.18
 -14  -6  12  -36.80   48.19
 -14   6 -14   57.25   14.98
  14  -6  14   81.55   18.39
  14   6 -14  111.13   68.09
 -14  -6  14  -13.07   50.77
  14   8   0   44.80   13.59
 -14  -8   0    8.95   10.85
  14   8  -2   62.13   17.39
  14   8   2   80.95   14.54
 -14  -8   2   48.16   17.40
 -14  -8  -2   49.67   14.72
  14   8  -4   69.46   25.23
 -14  -8   4   81.08   25.60
  14   8  -6   28.54   17.84
 -14  -8   6    5.95   18.21
  14   8  -8   -1.64   21.00
 -14  -8   8   -7.19   18.80
 -14  -8  10  -18.48   22.62
  14   8 -10   65.52   26.68
  14   8 -12   34.69   28.11
 -14  -8  12   24.77   24.26
  14  10   0  151.84   27.11
 -14 -10   0  126.17   25.89
  14  10   2  118.80   24.92
  14  10  -2  114.23   25.94
  14  10  -4   41.70   17.04
 -14 -10   4   33.75   15.80
  14  10  -6   89.91   23.28
 -14 -10   6   99.47   24.89
  14  10  -8   99.46   24.87
 -14 -10   8   77.62   23.45
  15  -1  11   29.53    9.65
  15  -1  13   58.77   15.35
  15   3  -7  250.06  324.64
  15   3  -9  -21.09  297.46
  15   3 -11    5.32  269.30
  15  -3  13   63.71   14.25
 -15   3 -13   33.93   10.90
 -15  -5   1   64.28   51.77
  15   5   1   79.63   34.40
  15   5  -1    1.25   45.54
 -15  -5  -1   -6.93   42.82
 -15  -5   3  -19.47   64.87
  15   5   3  212.47   36.90
 -15  -5   5  -29.27   67.35
  15   5  -5   61.13   70.80
  15   5  -7  101.21   83.92
 -15  -5   7   58.52   72.50
  15   5  -9   37.59   93.55
 -15  -5   9  -61.84   76.31
  15   5 -11   73.43  106.39
 -15  -5  11   49.90   73.77
  15   7   1   25.10   12.24
  15   7  -1   19.69   13.94
 -15  -7   1    2.67   14.57
 -15  -7   3   13.61   17.80
  15   7  -3   16.91   18.10
 -15  -7   5    2.99   22.60
  15   7  -5    1.50   21.70
  15   7  -7   30.21   25.76
 -15  -7   7   -3.47   27.34
  15   7  -9   29.82   32.48
 -15  -7   9    2.31   32.29
  15   9  -1   81.48   20.12
  15   9  -3   30.87   14.32
 -15  -9   3   21.12   15.04
  15   9  -5   50.65   17.83
 -15  -9   5   25.53   16.82
 -15  -9   7   47.98   21.96
  15   9  -7  153.06   26.64
  16   4  -2  141.83  180.92
  16   4  -4  338.68  204.12
  16   4  -6   -6.31  185.98
 -16  -4   8  -58.69  122.81
  16   4  -8  -13.80  188.64
  16   4 -10  -18.96  189.59
 -16  -4  10    9.75  110.62
  16   6  -2   52.22   31.64
  16   6  -4   59.40   43.12
 -16  -6   4    0.78   39.77
  16   6  -6   88.91   54.09
 -16  -6   6   15.02   43.92
 -16  -6   8   10.16   50.94
  16   6  -8   68.44   63.39
  16   8  -4   12.37   15.73
  17   5  -3  138.37   98.77
  17   5  -5  -50.39  113.78
   0   0   0    0.00    0.00


TITL exp_2586 in Fmmm
REM Fmmm (#69 in standard setting)
CELL 0.02510  12.588584  13.360376  18.285549  90.0000  90.0000  90.0000
ZERR    1.00   0.112680   0.128522   0.145914   0.0000   0.0000   0.0000
LATT  4
SYMM -x,-y, z
SYMM -x, y,-z
SYMM  x,-y,-z
REM SFAC Li B O Al
REM ED SFAC according to Peng (1999)
SFAC LI 0.120 0.591 0.395 6.111 1.379 36.767 1.389 117.031 0 0 0 0 1.33 3.000
SFAC B 0.130 0.418 0.520 3.921 1.377 16.663 0.767 51.751 0 0 0 0 0.85 5.000
SFAC O 0.143 0.305 0.510 2.268 0.937 8.262 0.392 25.665 0 0 0 0 0.63 8.000
SFAC AL 0.358 0.453 0.975 3.775 2.639 23.386 1.910 80.502 0 0 0 0 1.26 13.000
UNIT 1.00 1.00 1.00 1.00
TREF
HKLF 4
END
_computing_structure_solution     'SHELXT 2018/2 (Sheldrick, 2018)'
;
_shelx_hkl_checksum                43847
_olex2_submission_special_instructions  'No special instructions were received'
_oxdiff_exptl_absorpt_empirical_details
;
Empirical correction (ABSPACK) includes:
- Absorption correction using spherical harmonics
- Frame scaling
;
