data_test
_audit_creation_date              2023-09-14
_audit_creation_method            'Materials Studio'
_symmetry_space_group_name_H-M    'P1'
_symmetry_Int_Tables_number       1
_symmetry_cell_setting            triclinic
loop_
_symmetry_equiv_pos_as_xyz
  x,y,z
_cell_length_a                    39.3197
_cell_length_b                    43.9501
_cell_length_c                    36.1593
_cell_angle_alpha                 90.0000
_cell_angle_beta                  90.0000
_cell_angle_gamma                 109.6020
loop_
_atom_site_label
_atom_site_type_symbol
_atom_site_fract_x
_atom_site_fract_y
_atom_site_fract_z
_atom_site_U_iso_or_equiv
_atom_site_adp_type
_atom_site_occupancy
Si1    Si    0.04906   0.12788   0.15917   0.00000  Uiso   1.00
Si2    Si    0.04771   0.03083   0.17701   0.00000  Uiso   1.00
Si3    Si    0.12187   0.06068   0.13828   0.00000  Uiso   1.00
O1     O     0.06892   0.11733   0.19528   0.00000  Uiso   1.00
O2     O     0.03602   0.15870   0.16918   0.00000  Uiso   1.00
O3     O     0.09151   0.04810   0.17146   0.00000  Uiso   1.00
O4     O     0.01308   0.09949   0.14261   0.00000  Uiso   1.00
O5     O     0.02810   0.04495   0.14409   0.00000  Uiso   1.00
O6     O     0.03180   0.03562   0.21744   0.00000  Uiso   1.00
Si4    Si    0.01346   0.02313   0.25749   0.00000  Uiso   1.00
Si5    Si    0.00455   0.08846   0.27889   0.00000  Uiso   1.00
Si6    Si    0.07969   0.12066   0.24003   0.00000  Uiso   1.00
O7     O     0.04248   0.01528   0.28448   0.00000  Uiso   1.00
O8     O     0.12553   0.05088   0.27574   0.00000  Uiso   1.00
O9     O     0.04478   0.11037   0.26678   0.00000  Uiso   1.00
O10    O     0.10411   0.15707   0.25169   0.00000  Uiso   1.00
O11    O     0.10200   0.09708   0.25079   0.00000  Uiso   1.00
O12    O     0.12216   0.09728   0.32101   0.00000  Uiso   1.00
Si7    Si    0.04908   0.29455   0.15914   0.00000  Uiso   1.00
Si8    Si    0.04756   0.19759   0.17719   0.00000  Uiso   1.00
Si9    Si    0.12187   0.22734   0.13828   0.00000  Uiso   1.00
O13    O     0.06896   0.28401   0.19525   0.00000  Uiso   1.00
O14    O     0.03603   0.32537   0.16916   0.00000  Uiso   1.00
O15    O     0.09138   0.21459   0.17133   0.00000  Uiso   1.00
O16    O     0.01308   0.26616   0.14261   0.00000  Uiso   1.00
O17    O     0.02810   0.21162   0.14409   0.00000  Uiso   1.00
O18    O     0.03271   0.20226   0.21817   0.00000  Uiso   1.00
Si10   Si    0.01360   0.18969   0.25788   0.00000  Uiso   1.00
Si11   Si    0.00458   0.25510   0.27888   0.00000  Uiso   1.00
Si12   Si    0.07971   0.28734   0.24000   0.00000  Uiso   1.00
O19    O     0.04197   0.18156   0.28550   0.00000  Uiso   1.00
O20    O     0.12555   0.21759   0.27576   0.00000  Uiso   1.00
O21    O     0.04479   0.27703   0.26674   0.00000  Uiso   1.00
O22    O     0.10409   0.32376   0.25168   0.00000  Uiso   1.00
O23    O     0.10205   0.26380   0.25077   0.00000  Uiso   1.00
O24    O     0.12218   0.26400   0.32101   0.00000  Uiso   1.00
Si13   Si    0.04927   0.46109   0.15901   0.00000  Uiso   1.00
Si14   Si    0.04757   0.36425   0.17719   0.00000  Uiso   1.00
Si15   Si    0.12187   0.39401   0.13828   0.00000  Uiso   1.00
O25    O     0.06906   0.45053   0.19518   0.00000  Uiso   1.00
O26    O     0.03632   0.49193   0.16908   0.00000  Uiso   1.00
O27    O     0.09139   0.38126   0.17133   0.00000  Uiso   1.00
O28    O     0.01308   0.43283   0.14261   0.00000  Uiso   1.00
O29    O     0.02810   0.37828   0.14409   0.00000  Uiso   1.00
O30    O     0.03271   0.36891   0.21817   0.00000  Uiso   1.00
Si16   Si    0.01360   0.35634   0.25787   0.00000  Uiso   1.00
Si17   Si    0.00458   0.42174   0.27888   0.00000  Uiso   1.00
Si18   Si    0.07972   0.45393   0.23995   0.00000  Uiso   1.00
O31    O     0.04200   0.34825   0.28551   0.00000  Uiso   1.00
O32    O     0.12564   0.38425   0.27585   0.00000  Uiso   1.00
O33    O     0.04477   0.44365   0.26665   0.00000  Uiso   1.00
O34    O     0.10410   0.49036   0.25160   0.00000  Uiso   1.00
O35    O     0.10204   0.43039   0.25083   0.00000  Uiso   1.00
O36    O     0.12222   0.43068   0.32106   0.00000  Uiso   1.00
Si19   Si    0.04906   0.62788   0.15917   0.00000  Uiso   1.00
Si20   Si    0.04771   0.53083   0.17701   0.00000  Uiso   1.00
Si21   Si    0.12187   0.56068   0.13828   0.00000  Uiso   1.00
O37    O     0.06892   0.61733   0.19528   0.00000  Uiso   1.00
O38    O     0.03602   0.65870   0.16918   0.00000  Uiso   1.00
O39    O     0.09151   0.54810   0.17146   0.00000  Uiso   1.00
O40    O     0.01308   0.59949   0.14261   0.00000  Uiso   1.00
O41    O     0.02810   0.54495   0.14409   0.00000  Uiso   1.00
O42    O     0.03180   0.53562   0.21744   0.00000  Uiso   1.00
Si22   Si    0.01346   0.52313   0.25749   0.00000  Uiso   1.00
Si23   Si    0.00455   0.58846   0.27889   0.00000  Uiso   1.00
Si24   Si    0.07969   0.62066   0.24003   0.00000  Uiso   1.00
O43    O     0.04248   0.51528   0.28448   0.00000  Uiso   1.00
O44    O     0.12553   0.55088   0.27574   0.00000  Uiso   1.00
O45    O     0.04478   0.61037   0.26678   0.00000  Uiso   1.00
O46    O     0.10411   0.65707   0.25169   0.00000  Uiso   1.00
O47    O     0.10200   0.59708   0.25079   0.00000  Uiso   1.00
O48    O     0.12216   0.59728   0.32101   0.00000  Uiso   1.00
Si25   Si    0.04908   0.79455   0.15914   0.00000  Uiso   1.00
Si26   Si    0.04756   0.69759   0.17719   0.00000  Uiso   1.00
Si27   Si    0.12187   0.72734   0.13828   0.00000  Uiso   1.00
O49    O     0.06896   0.78401   0.19525   0.00000  Uiso   1.00
O50    O     0.03603   0.82537   0.16916   0.00000  Uiso   1.00
O51    O     0.09138   0.71459   0.17133   0.00000  Uiso   1.00
O52    O     0.01308   0.76616   0.14261   0.00000  Uiso   1.00
O53    O     0.02810   0.71162   0.14409   0.00000  Uiso   1.00
O54    O     0.03271   0.70226   0.21817   0.00000  Uiso   1.00
Si28   Si    0.01360   0.68969   0.25788   0.00000  Uiso   1.00
Si29   Si    0.00458   0.75510   0.27888   0.00000  Uiso   1.00
Si30   Si    0.07971   0.78734   0.24000   0.00000  Uiso   1.00
O55    O     0.04197   0.68156   0.28550   0.00000  Uiso   1.00
O56    O     0.12555   0.71759   0.27576   0.00000  Uiso   1.00
O57    O     0.04479   0.77703   0.26674   0.00000  Uiso   1.00
O58    O     0.10409   0.82376   0.25168   0.00000  Uiso   1.00
O59    O     0.10205   0.76380   0.25077   0.00000  Uiso   1.00
O60    O     0.12218   0.76400   0.32101   0.00000  Uiso   1.00
Si31   Si    0.04927   0.96109   0.15901   0.00000  Uiso   1.00
Si32   Si    0.04757   0.86425   0.17719   0.00000  Uiso   1.00
Si33   Si    0.12187   0.89401   0.13828   0.00000  Uiso   1.00
O61    O     0.06906   0.95053   0.19518   0.00000  Uiso   1.00
O62    O     0.03632   0.99193   0.16908   0.00000  Uiso   1.00
O63    O     0.09139   0.88126   0.17133   0.00000  Uiso   1.00
O64    O     0.01308   0.93283   0.14261   0.00000  Uiso   1.00
O65    O     0.02810   0.87828   0.14409   0.00000  Uiso   1.00
O66    O     0.03271   0.86891   0.21817   0.00000  Uiso   1.00
Si34   Si    0.01360   0.85634   0.25787   0.00000  Uiso   1.00
Si35   Si    0.00458   0.92174   0.27888   0.00000  Uiso   1.00
Si36   Si    0.07972   0.95393   0.23995   0.00000  Uiso   1.00
O67    O     0.04200   0.84825   0.28551   0.00000  Uiso   1.00
O68    O     0.12564   0.88425   0.27585   0.00000  Uiso   1.00
O69    O     0.04477   0.94365   0.26665   0.00000  Uiso   1.00
O70    O     0.10410   0.99036   0.25160   0.00000  Uiso   1.00
O71    O     0.10204   0.93039   0.25083   0.00000  Uiso   1.00
O72    O     0.12222   0.93068   0.32106   0.00000  Uiso   1.00
Si37   Si    0.17430   0.12776   0.15893   0.00000  Uiso   1.00
Si38   Si    0.17269   0.03080   0.17700   0.00000  Uiso   1.00
Si39   Si    0.24687   0.06068   0.13828   0.00000  Uiso   1.00
O73    O     0.19410   0.11722   0.19511   0.00000  Uiso   1.00
O74    O     0.16132   0.15858   0.16901   0.00000  Uiso   1.00
O75    O     0.21650   0.04811   0.17146   0.00000  Uiso   1.00
O76    O     0.13808   0.09949   0.14261   0.00000  Uiso   1.00
O77    O     0.15310   0.04495   0.14409   0.00000  Uiso   1.00
O78    O     0.15670   0.03553   0.21742   0.00000  Uiso   1.00
Si40   Si    0.13829   0.02308   0.25745   0.00000  Uiso   1.00
Si41   Si    0.12947   0.08848   0.27870   0.00000  Uiso   1.00
Si42   Si    0.20470   0.12058   0.23989   0.00000  Uiso   1.00
O79    O     0.16724   0.01522   0.28453   0.00000  Uiso   1.00
O80    O     0.25056   0.05085   0.27578   0.00000  Uiso   1.00
O81    O     0.16970   0.11034   0.26653   0.00000  Uiso   1.00
O82    O     0.22909   0.15700   0.25159   0.00000  Uiso   1.00
O83    O     0.22696   0.09700   0.25081   0.00000  Uiso   1.00
O84    O     0.24717   0.09726   0.32102   0.00000  Uiso   1.00
Si43   Si    0.17430   0.29442   0.15894   0.00000  Uiso   1.00
Si44   Si    0.17269   0.19747   0.17701   0.00000  Uiso   1.00
Si45   Si    0.24687   0.22734   0.13828   0.00000  Uiso   1.00
O85    O     0.19410   0.28389   0.19511   0.00000  Uiso   1.00
O86    O     0.16133   0.32525   0.16903   0.00000  Uiso   1.00
O87    O     0.21650   0.21476   0.17146   0.00000  Uiso   1.00
O88    O     0.13808   0.26616   0.14261   0.00000  Uiso   1.00
O89    O     0.15310   0.21162   0.14409   0.00000  Uiso   1.00
O90    O     0.15670   0.20220   0.21743   0.00000  Uiso   1.00
Si46   Si    0.13831   0.18979   0.25748   0.00000  Uiso   1.00
Si47   Si    0.12951   0.25519   0.27871   0.00000  Uiso   1.00
Si48   Si    0.20473   0.28726   0.23989   0.00000  Uiso   1.00
O91    O     0.16728   0.18195   0.28454   0.00000  Uiso   1.00
O92    O     0.25056   0.21751   0.27577   0.00000  Uiso   1.00
O93    O     0.16974   0.27704   0.26655   0.00000  Uiso   1.00
O94    O     0.22913   0.32368   0.25158   0.00000  Uiso   1.00
O95    O     0.22698   0.26367   0.25080   0.00000  Uiso   1.00
O96    O     0.24717   0.26392   0.32102   0.00000  Uiso   1.00
Si49   Si    0.17431   0.46109   0.15893   0.00000  Uiso   1.00
Si50   Si    0.17269   0.36414   0.17701   0.00000  Uiso   1.00
Si51   Si    0.24687   0.39401   0.13828   0.00000  Uiso   1.00
O97    O     0.19410   0.45056   0.19512   0.00000  Uiso   1.00
O98    O     0.16134   0.49192   0.16900   0.00000  Uiso   1.00
O99    O     0.21650   0.38143   0.17146   0.00000  Uiso   1.00
O100   O     0.13808   0.43283   0.14261   0.00000  Uiso   1.00
O101   O     0.15310   0.37828   0.14409   0.00000  Uiso   1.00
O102   O     0.15671   0.36888   0.21744   0.00000  Uiso   1.00
Si52   Si    0.13833   0.35644   0.25749   0.00000  Uiso   1.00
Si53   Si    0.12954   0.42185   0.27877   0.00000  Uiso   1.00
Si54   Si    0.20473   0.45393   0.23990   0.00000  Uiso   1.00
O103   O     0.16730   0.34853   0.28450   0.00000  Uiso   1.00
O104   O     0.25056   0.38418   0.27577   0.00000  Uiso   1.00
O105   O     0.16975   0.44372   0.26656   0.00000  Uiso   1.00
O106   O     0.22913   0.49035   0.25158   0.00000  Uiso   1.00
O107   O     0.22698   0.43034   0.25080   0.00000  Uiso   1.00
O108   O     0.24717   0.43059   0.32102   0.00000  Uiso   1.00
Si55   Si    0.17430   0.62776   0.15893   0.00000  Uiso   1.00
Si56   Si    0.17269   0.53080   0.17700   0.00000  Uiso   1.00
Si57   Si    0.24687   0.56068   0.13828   0.00000  Uiso   1.00
O109   O     0.19410   0.61722   0.19511   0.00000  Uiso   1.00
O110   O     0.16132   0.65858   0.16901   0.00000  Uiso   1.00
O111   O     0.21650   0.54811   0.17146   0.00000  Uiso   1.00
O112   O     0.13808   0.59949   0.14261   0.00000  Uiso   1.00
O113   O     0.15310   0.54495   0.14409   0.00000  Uiso   1.00
O114   O     0.15670   0.53553   0.21742   0.00000  Uiso   1.00
Si58   Si    0.13829   0.52308   0.25745   0.00000  Uiso   1.00
Si59   Si    0.12947   0.58848   0.27870   0.00000  Uiso   1.00
Si60   Si    0.20470   0.62058   0.23989   0.00000  Uiso   1.00
O115   O     0.16724   0.51522   0.28453   0.00000  Uiso   1.00
O116   O     0.25056   0.55085   0.27578   0.00000  Uiso   1.00
O117   O     0.16970   0.61034   0.26653   0.00000  Uiso   1.00
O118   O     0.22909   0.65700   0.25159   0.00000  Uiso   1.00
O119   O     0.22696   0.59700   0.25081   0.00000  Uiso   1.00
O120   O     0.24717   0.59726   0.32102   0.00000  Uiso   1.00
Si61   Si    0.17430   0.79442   0.15894   0.00000  Uiso   1.00
Si62   Si    0.17269   0.69747   0.17701   0.00000  Uiso   1.00
Si63   Si    0.24687   0.72734   0.13828   0.00000  Uiso   1.00
O121   O     0.19410   0.78389   0.19511   0.00000  Uiso   1.00
O122   O     0.16133   0.82525   0.16903   0.00000  Uiso   1.00
O123   O     0.21650   0.71476   0.17146   0.00000  Uiso   1.00
O124   O     0.13808   0.76616   0.14261   0.00000  Uiso   1.00
O125   O     0.15310   0.71162   0.14409   0.00000  Uiso   1.00
O126   O     0.15670   0.70220   0.21743   0.00000  Uiso   1.00
Si64   Si    0.13831   0.68979   0.25748   0.00000  Uiso   1.00
Si65   Si    0.12951   0.75519   0.27871   0.00000  Uiso   1.00
Si66   Si    0.20473   0.78726   0.23989   0.00000  Uiso   1.00
O127   O     0.16728   0.68195   0.28454   0.00000  Uiso   1.00
O128   O     0.25056   0.71751   0.27577   0.00000  Uiso   1.00
O129   O     0.16974   0.77704   0.26655   0.00000  Uiso   1.00
O130   O     0.22913   0.82368   0.25158   0.00000  Uiso   1.00
O131   O     0.22698   0.76367   0.25080   0.00000  Uiso   1.00
O132   O     0.24717   0.76392   0.32102   0.00000  Uiso   1.00
Si67   Si    0.17431   0.96109   0.15893   0.00000  Uiso   1.00
Si68   Si    0.17269   0.86414   0.17701   0.00000  Uiso   1.00
Si69   Si    0.24687   0.89401   0.13828   0.00000  Uiso   1.00
O133   O     0.19410   0.95056   0.19512   0.00000  Uiso   1.00
O134   O     0.16134   0.99192   0.16900   0.00000  Uiso   1.00
O135   O     0.21650   0.88143   0.17146   0.00000  Uiso   1.00
O136   O     0.13808   0.93283   0.14261   0.00000  Uiso   1.00
O137   O     0.15310   0.87828   0.14409   0.00000  Uiso   1.00
O138   O     0.15671   0.86888   0.21744   0.00000  Uiso   1.00
Si70   Si    0.13833   0.85644   0.25749   0.00000  Uiso   1.00
Si71   Si    0.12954   0.92185   0.27877   0.00000  Uiso   1.00
Si72   Si    0.20473   0.95393   0.23990   0.00000  Uiso   1.00
O139   O     0.16730   0.84853   0.28450   0.00000  Uiso   1.00
O140   O     0.25056   0.88418   0.27577   0.00000  Uiso   1.00
O141   O     0.16975   0.94372   0.26656   0.00000  Uiso   1.00
O142   O     0.22913   0.99035   0.25158   0.00000  Uiso   1.00
O143   O     0.22698   0.93034   0.25080   0.00000  Uiso   1.00
O144   O     0.24717   0.93059   0.32102   0.00000  Uiso   1.00
Si73   Si    0.29931   0.12775   0.15892   0.00000  Uiso   1.00
Si74   Si    0.29770   0.03080   0.17700   0.00000  Uiso   1.00
Si75   Si    0.37187   0.06068   0.13828   0.00000  Uiso   1.00
O145   O     0.31910   0.11722   0.19511   0.00000  Uiso   1.00
O146   O     0.28634   0.15858   0.16898   0.00000  Uiso   1.00
O147   O     0.34150   0.04810   0.17146   0.00000  Uiso   1.00
O148   O     0.26308   0.09949   0.14261   0.00000  Uiso   1.00
O149   O     0.27810   0.04495   0.14409   0.00000  Uiso   1.00
O150   O     0.28172   0.03553   0.21743   0.00000  Uiso   1.00
Si76   Si    0.26332   0.02306   0.25745   0.00000  Uiso   1.00
Si77   Si    0.25447   0.08845   0.27872   0.00000  Uiso   1.00
Si78   Si    0.32969   0.12058   0.23989   0.00000  Uiso   1.00
O151   O     0.29228   0.01519   0.28451   0.00000  Uiso   1.00
O152   O     0.37555   0.05084   0.27577   0.00000  Uiso   1.00
O153   O     0.29469   0.11032   0.26653   0.00000  Uiso   1.00
O154   O     0.35408   0.15700   0.25159   0.00000  Uiso   1.00
O155   O     0.35197   0.09700   0.25080   0.00000  Uiso   1.00
O156   O     0.37217   0.09726   0.32101   0.00000  Uiso   1.00
Si79   Si    0.29931   0.29442   0.15893   0.00000  Uiso   1.00
Si80   Si    0.29769   0.19746   0.17700   0.00000  Uiso   1.00
Si81   Si    0.37187   0.22734   0.13828   0.00000  Uiso   1.00
O157   O     0.31910   0.28388   0.19511   0.00000  Uiso   1.00
O158   O     0.28634   0.32525   0.16900   0.00000  Uiso   1.00
O159   O     0.34150   0.21476   0.17146   0.00000  Uiso   1.00
O160   O     0.26308   0.26616   0.14261   0.00000  Uiso   1.00
O161   O     0.27810   0.21162   0.14409   0.00000  Uiso   1.00
O162   O     0.28170   0.20218   0.21742   0.00000  Uiso   1.00
Si82   Si    0.26329   0.18971   0.25745   0.00000  Uiso   1.00
Si83   Si    0.25448   0.25511   0.27872   0.00000  Uiso   1.00
Si84   Si    0.32970   0.28724   0.23989   0.00000  Uiso   1.00
O163   O     0.29225   0.18182   0.28450   0.00000  Uiso   1.00
O164   O     0.37556   0.21751   0.27577   0.00000  Uiso   1.00
O165   O     0.29470   0.27698   0.26653   0.00000  Uiso   1.00
O166   O     0.35408   0.32366   0.25159   0.00000  Uiso   1.00
O167   O     0.35197   0.26367   0.25079   0.00000  Uiso   1.00
O168   O     0.37218   0.26393   0.32101   0.00000  Uiso   1.00
Si85   Si    0.29931   0.46109   0.15893   0.00000  Uiso   1.00
Si86   Si    0.29770   0.36413   0.17700   0.00000  Uiso   1.00
Si87   Si    0.37187   0.39401   0.13828   0.00000  Uiso   1.00
O169   O     0.31910   0.45055   0.19511   0.00000  Uiso   1.00
O170   O     0.28634   0.49192   0.16900   0.00000  Uiso   1.00
O171   O     0.34150   0.38143   0.17146   0.00000  Uiso   1.00
O172   O     0.26308   0.43283   0.14261   0.00000  Uiso   1.00
O173   O     0.27810   0.37828   0.14409   0.00000  Uiso   1.00
O174   O     0.28172   0.36886   0.21743   0.00000  Uiso   1.00
Si88   Si    0.26332   0.35639   0.25745   0.00000  Uiso   1.00
Si89   Si    0.25448   0.42178   0.27872   0.00000  Uiso   1.00
Si90   Si    0.32970   0.45391   0.23990   0.00000  Uiso   1.00
O175   O     0.29228   0.34852   0.28450   0.00000  Uiso   1.00
O176   O     0.37555   0.38417   0.27577   0.00000  Uiso   1.00
O177   O     0.29470   0.44365   0.26653   0.00000  Uiso   1.00
O178   O     0.35408   0.49033   0.25159   0.00000  Uiso   1.00
O179   O     0.35197   0.43034   0.25080   0.00000  Uiso   1.00
O180   O     0.37218   0.43059   0.32101   0.00000  Uiso   1.00
Si91   Si    0.29931   0.62775   0.15892   0.00000  Uiso   1.00
Si92   Si    0.29770   0.53080   0.17700   0.00000  Uiso   1.00
Si93   Si    0.37187   0.56068   0.13828   0.00000  Uiso   1.00
O181   O     0.31910   0.61722   0.19511   0.00000  Uiso   1.00
O182   O     0.28634   0.65858   0.16898   0.00000  Uiso   1.00
O183   O     0.34150   0.54810   0.17146   0.00000  Uiso   1.00
O184   O     0.26308   0.59949   0.14261   0.00000  Uiso   1.00
O185   O     0.27810   0.54495   0.14409   0.00000  Uiso   1.00
O186   O     0.28172   0.53553   0.21743   0.00000  Uiso   1.00
Si94   Si    0.26332   0.52306   0.25745   0.00000  Uiso   1.00
Si95   Si    0.25447   0.58845   0.27872   0.00000  Uiso   1.00
Si96   Si    0.32969   0.62058   0.23989   0.00000  Uiso   1.00
O187   O     0.29228   0.51519   0.28451   0.00000  Uiso   1.00
O188   O     0.37555   0.55084   0.27577   0.00000  Uiso   1.00
O189   O     0.29469   0.61032   0.26653   0.00000  Uiso   1.00
O190   O     0.35408   0.65700   0.25159   0.00000  Uiso   1.00
O191   O     0.35197   0.59700   0.25080   0.00000  Uiso   1.00
O192   O     0.37217   0.59726   0.32101   0.00000  Uiso   1.00
Si97   Si    0.29931   0.79442   0.15893   0.00000  Uiso   1.00
Si98   Si    0.29769   0.69746   0.17700   0.00000  Uiso   1.00
Si99   Si    0.37187   0.72734   0.13828   0.00000  Uiso   1.00
O193   O     0.31910   0.78388   0.19511   0.00000  Uiso   1.00
O194   O     0.28634   0.82525   0.16900   0.00000  Uiso   1.00
O195   O     0.34150   0.71476   0.17146   0.00000  Uiso   1.00
O196   O     0.26308   0.76616   0.14261   0.00000  Uiso   1.00
O197   O     0.27810   0.71162   0.14409   0.00000  Uiso   1.00
O198   O     0.28170   0.70218   0.21742   0.00000  Uiso   1.00
Si100  Si    0.26329   0.68971   0.25745   0.00000  Uiso   1.00
Si101  Si    0.25448   0.75511   0.27872   0.00000  Uiso   1.00
Si102  Si    0.32970   0.78724   0.23989   0.00000  Uiso   1.00
O199   O     0.29225   0.68182   0.28450   0.00000  Uiso   1.00
O200   O     0.37556   0.71751   0.27577   0.00000  Uiso   1.00
O201   O     0.29470   0.77698   0.26653   0.00000  Uiso   1.00
O202   O     0.35408   0.82366   0.25159   0.00000  Uiso   1.00
O203   O     0.35197   0.76367   0.25079   0.00000  Uiso   1.00
O204   O     0.37218   0.76393   0.32101   0.00000  Uiso   1.00
Si103  Si    0.29931   0.96109   0.15893   0.00000  Uiso   1.00
Si104  Si    0.29770   0.86413   0.17700   0.00000  Uiso   1.00
Si105  Si    0.37187   0.89401   0.13828   0.00000  Uiso   1.00
O205   O     0.31910   0.95055   0.19511   0.00000  Uiso   1.00
O206   O     0.28634   0.99192   0.16900   0.00000  Uiso   1.00
O207   O     0.34150   0.88143   0.17146   0.00000  Uiso   1.00
O208   O     0.26308   0.93283   0.14261   0.00000  Uiso   1.00
O209   O     0.27810   0.87828   0.14409   0.00000  Uiso   1.00
O210   O     0.28172   0.86886   0.21743   0.00000  Uiso   1.00
Si106  Si    0.26332   0.85639   0.25745   0.00000  Uiso   1.00
Si107  Si    0.25448   0.92178   0.27872   0.00000  Uiso   1.00
Si108  Si    0.32970   0.95391   0.23990   0.00000  Uiso   1.00
O211   O     0.29228   0.84852   0.28450   0.00000  Uiso   1.00
O212   O     0.37555   0.88417   0.27577   0.00000  Uiso   1.00
O213   O     0.29470   0.94365   0.26653   0.00000  Uiso   1.00
O214   O     0.35408   0.99033   0.25159   0.00000  Uiso   1.00
O215   O     0.35197   0.93034   0.25080   0.00000  Uiso   1.00
O216   O     0.37218   0.93059   0.32101   0.00000  Uiso   1.00
Si109  Si    0.42431   0.12775   0.15891   0.00000  Uiso   1.00
Si110  Si    0.42269   0.03080   0.17700   0.00000  Uiso   1.00
Si111  Si    0.49687   0.06068   0.13828   0.00000  Uiso   1.00
O217   O     0.44411   0.11723   0.19509   0.00000  Uiso   1.00
O218   O     0.41134   0.15858   0.16898   0.00000  Uiso   1.00
O219   O     0.46650   0.04810   0.17146   0.00000  Uiso   1.00
O220   O     0.38808   0.09949   0.14261   0.00000  Uiso   1.00
O221   O     0.40310   0.04495   0.14409   0.00000  Uiso   1.00
O222   O     0.40670   0.03550   0.21742   0.00000  Uiso   1.00
Si112  Si    0.38828   0.02304   0.25745   0.00000  Uiso   1.00
Si113  Si    0.37948   0.08844   0.27871   0.00000  Uiso   1.00
Si114  Si    0.45470   0.12059   0.23988   0.00000  Uiso   1.00
O223   O     0.41724   0.01516   0.28450   0.00000  Uiso   1.00
O224   O     0.50056   0.05086   0.27576   0.00000  Uiso   1.00
O225   O     0.41969   0.11031   0.26651   0.00000  Uiso   1.00
O226   O     0.47907   0.15701   0.25158   0.00000  Uiso   1.00
O227   O     0.47700   0.09703   0.25078   0.00000  Uiso   1.00
O228   O     0.49720   0.09728   0.32100   0.00000  Uiso   1.00
Si115  Si    0.42432   0.29442   0.15891   0.00000  Uiso   1.00
Si116  Si    0.42269   0.19746   0.17700   0.00000  Uiso   1.00
Si117  Si    0.49687   0.22734   0.13828   0.00000  Uiso   1.00
O229   O     0.44411   0.28389   0.19509   0.00000  Uiso   1.00
O230   O     0.41134   0.32525   0.16898   0.00000  Uiso   1.00
O231   O     0.46650   0.21476   0.17146   0.00000  Uiso   1.00
O232   O     0.38808   0.26616   0.14261   0.00000  Uiso   1.00
O233   O     0.40310   0.21162   0.14409   0.00000  Uiso   1.00
O234   O     0.40670   0.20217   0.21742   0.00000  Uiso   1.00
Si118  Si    0.38828   0.18970   0.25745   0.00000  Uiso   1.00
Si119  Si    0.37948   0.25511   0.27871   0.00000  Uiso   1.00
Si120  Si    0.45471   0.28725   0.23988   0.00000  Uiso   1.00
O235   O     0.41724   0.18182   0.28450   0.00000  Uiso   1.00
O236   O     0.50056   0.21753   0.27576   0.00000  Uiso   1.00
O237   O     0.41970   0.27698   0.26651   0.00000  Uiso   1.00
O238   O     0.47907   0.32368   0.25158   0.00000  Uiso   1.00
O239   O     0.47700   0.26370   0.25078   0.00000  Uiso   1.00
O240   O     0.49721   0.26395   0.32099   0.00000  Uiso   1.00
Si121  Si    0.42432   0.46109   0.15891   0.00000  Uiso   1.00
Si122  Si    0.42269   0.36413   0.17700   0.00000  Uiso   1.00
Si123  Si    0.49687   0.39401   0.13828   0.00000  Uiso   1.00
O241   O     0.44411   0.45056   0.19509   0.00000  Uiso   1.00
O242   O     0.41134   0.49192   0.16898   0.00000  Uiso   1.00
O243   O     0.46650   0.38143   0.17146   0.00000  Uiso   1.00
O244   O     0.38808   0.43283   0.14261   0.00000  Uiso   1.00
O245   O     0.40310   0.37828   0.14409   0.00000  Uiso   1.00
O246   O     0.40670   0.36883   0.21742   0.00000  Uiso   1.00
Si124  Si    0.38828   0.35637   0.25745   0.00000  Uiso   1.00
Si125  Si    0.37948   0.42177   0.27871   0.00000  Uiso   1.00
Si126  Si    0.45471   0.45392   0.23988   0.00000  Uiso   1.00
O247   O     0.41724   0.34848   0.28450   0.00000  Uiso   1.00
O248   O     0.50056   0.38419   0.27576   0.00000  Uiso   1.00
O249   O     0.41969   0.44364   0.26651   0.00000  Uiso   1.00
O250   O     0.47907   0.49035   0.25158   0.00000  Uiso   1.00
O251   O     0.47700   0.43036   0.25078   0.00000  Uiso   1.00
O252   O     0.49720   0.43062   0.32100   0.00000  Uiso   1.00
Si127  Si    0.42431   0.62775   0.15891   0.00000  Uiso   1.00
Si128  Si    0.42269   0.53080   0.17700   0.00000  Uiso   1.00
Si129  Si    0.49687   0.56068   0.13828   0.00000  Uiso   1.00
O253   O     0.44411   0.61723   0.19509   0.00000  Uiso   1.00
O254   O     0.41134   0.65858   0.16898   0.00000  Uiso   1.00
O255   O     0.46650   0.54810   0.17146   0.00000  Uiso   1.00
O256   O     0.38808   0.59949   0.14261   0.00000  Uiso   1.00
O257   O     0.40310   0.54495   0.14409   0.00000  Uiso   1.00
O258   O     0.40670   0.53550   0.21742   0.00000  Uiso   1.00
Si130  Si    0.38828   0.52304   0.25745   0.00000  Uiso   1.00
Si131  Si    0.37948   0.58844   0.27871   0.00000  Uiso   1.00
Si132  Si    0.45470   0.62059   0.23988   0.00000  Uiso   1.00
O259   O     0.41724   0.51516   0.28450   0.00000  Uiso   1.00
O260   O     0.50056   0.55086   0.27576   0.00000  Uiso   1.00
O261   O     0.41969   0.61031   0.26651   0.00000  Uiso   1.00
O262   O     0.47907   0.65701   0.25158   0.00000  Uiso   1.00
O263   O     0.47700   0.59703   0.25078   0.00000  Uiso   1.00
O264   O     0.49720   0.59728   0.32100   0.00000  Uiso   1.00
Si133  Si    0.42432   0.79442   0.15891   0.00000  Uiso   1.00
Si134  Si    0.42269   0.69746   0.17700   0.00000  Uiso   1.00
Si135  Si    0.49687   0.72734   0.13828   0.00000  Uiso   1.00
O265   O     0.44411   0.78389   0.19509   0.00000  Uiso   1.00
O266   O     0.41134   0.82525   0.16898   0.00000  Uiso   1.00
O267   O     0.46650   0.71476   0.17146   0.00000  Uiso   1.00
O268   O     0.38808   0.76616   0.14261   0.00000  Uiso   1.00
O269   O     0.40310   0.71162   0.14409   0.00000  Uiso   1.00
O270   O     0.40670   0.70217   0.21742   0.00000  Uiso   1.00
Si136  Si    0.38828   0.68970   0.25745   0.00000  Uiso   1.00
Si137  Si    0.37948   0.75511   0.27871   0.00000  Uiso   1.00
Si138  Si    0.45471   0.78725   0.23988   0.00000  Uiso   1.00
O271   O     0.41724   0.68182   0.28450   0.00000  Uiso   1.00
O272   O     0.50056   0.71753   0.27576   0.00000  Uiso   1.00
O273   O     0.41970   0.77698   0.26651   0.00000  Uiso   1.00
O274   O     0.47907   0.82368   0.25158   0.00000  Uiso   1.00
O275   O     0.47700   0.76370   0.25078   0.00000  Uiso   1.00
O276   O     0.49721   0.76395   0.32099   0.00000  Uiso   1.00
Si139  Si    0.42432   0.96109   0.15891   0.00000  Uiso   1.00
Si140  Si    0.42269   0.86413   0.17700   0.00000  Uiso   1.00
Si141  Si    0.49687   0.89401   0.13828   0.00000  Uiso   1.00
O277   O     0.44411   0.95056   0.19509   0.00000  Uiso   1.00
O278   O     0.41134   0.99192   0.16898   0.00000  Uiso   1.00
O279   O     0.46650   0.88143   0.17146   0.00000  Uiso   1.00
O280   O     0.38808   0.93283   0.14261   0.00000  Uiso   1.00
O281   O     0.40310   0.87828   0.14409   0.00000  Uiso   1.00
O282   O     0.40670   0.86883   0.21742   0.00000  Uiso   1.00
Si142  Si    0.38828   0.85637   0.25745   0.00000  Uiso   1.00
Si143  Si    0.37948   0.92177   0.27871   0.00000  Uiso   1.00
Si144  Si    0.45471   0.95392   0.23988   0.00000  Uiso   1.00
O283   O     0.41724   0.84848   0.28450   0.00000  Uiso   1.00
O284   O     0.50056   0.88419   0.27576   0.00000  Uiso   1.00
O285   O     0.41969   0.94364   0.26651   0.00000  Uiso   1.00
O286   O     0.47907   0.99035   0.25158   0.00000  Uiso   1.00
O287   O     0.47700   0.93036   0.25078   0.00000  Uiso   1.00
O288   O     0.49720   0.93062   0.32100   0.00000  Uiso   1.00
Si145  Si    0.54931   0.12775   0.15891   0.00000  Uiso   1.00
Si146  Si    0.54769   0.03080   0.17700   0.00000  Uiso   1.00
Si147  Si    0.62187   0.06068   0.13828   0.00000  Uiso   1.00
O289   O     0.56913   0.11726   0.19509   0.00000  Uiso   1.00
O290   O     0.53634   0.15858   0.16898   0.00000  Uiso   1.00
O291   O     0.59150   0.04810   0.17146   0.00000  Uiso   1.00
O292   O     0.51308   0.09949   0.14261   0.00000  Uiso   1.00
O293   O     0.52810   0.04495   0.14409   0.00000  Uiso   1.00
O294   O     0.53170   0.03551   0.21742   0.00000  Uiso   1.00
Si148  Si    0.51328   0.02305   0.25745   0.00000  Uiso   1.00
Si149  Si    0.50450   0.08846   0.27870   0.00000  Uiso   1.00
Si150  Si    0.57974   0.12063   0.23988   0.00000  Uiso   1.00
O295   O     0.54222   0.01515   0.28451   0.00000  Uiso   1.00
O296   O     0.62560   0.05092   0.27576   0.00000  Uiso   1.00
O297   O     0.54472   0.11033   0.26651   0.00000  Uiso   1.00
O298   O     0.60407   0.15707   0.25158   0.00000  Uiso   1.00
O299   O     0.60207   0.09711   0.25078   0.00000  Uiso   1.00
O300   O     0.62219   0.09731   0.32101   0.00000  Uiso   1.00
Si151  Si    0.54931   0.29442   0.15891   0.00000  Uiso   1.00
Si152  Si    0.54769   0.19746   0.17700   0.00000  Uiso   1.00
Si153  Si    0.62187   0.22734   0.13828   0.00000  Uiso   1.00
O301   O     0.56914   0.28392   0.19509   0.00000  Uiso   1.00
O302   O     0.53634   0.32525   0.16898   0.00000  Uiso   1.00
O303   O     0.59150   0.21476   0.17146   0.00000  Uiso   1.00
O304   O     0.51308   0.26616   0.14261   0.00000  Uiso   1.00
O305   O     0.52810   0.21162   0.14409   0.00000  Uiso   1.00
O306   O     0.53170   0.20217   0.21742   0.00000  Uiso   1.00
Si154  Si    0.51328   0.18971   0.25745   0.00000  Uiso   1.00
Si155  Si    0.50451   0.25513   0.27870   0.00000  Uiso   1.00
Si156  Si    0.57974   0.28730   0.23988   0.00000  Uiso   1.00
O307   O     0.54222   0.18181   0.28451   0.00000  Uiso   1.00
O308   O     0.62561   0.21759   0.27576   0.00000  Uiso   1.00
O309   O     0.54473   0.27699   0.26650   0.00000  Uiso   1.00
O310   O     0.60407   0.32374   0.25158   0.00000  Uiso   1.00
O311   O     0.60208   0.26377   0.25078   0.00000  Uiso   1.00
O312   O     0.62219   0.26398   0.32101   0.00000  Uiso   1.00
Si157  Si    0.54932   0.46109   0.15891   0.00000  Uiso   1.00
Si158  Si    0.54769   0.36413   0.17700   0.00000  Uiso   1.00
Si159  Si    0.62187   0.39401   0.13828   0.00000  Uiso   1.00
O313   O     0.56914   0.45059   0.19509   0.00000  Uiso   1.00
O314   O     0.53634   0.49192   0.16898   0.00000  Uiso   1.00
O315   O     0.59150   0.38143   0.17146   0.00000  Uiso   1.00
O316   O     0.51308   0.43283   0.14261   0.00000  Uiso   1.00
O317   O     0.52810   0.37828   0.14409   0.00000  Uiso   1.00
O318   O     0.53170   0.36884   0.21742   0.00000  Uiso   1.00
Si160  Si    0.51328   0.35638   0.25745   0.00000  Uiso   1.00
Si161  Si    0.50450   0.42180   0.27870   0.00000  Uiso   1.00
Si162  Si    0.57974   0.45397   0.23988   0.00000  Uiso   1.00
O319   O     0.54222   0.34849   0.28451   0.00000  Uiso   1.00
O320   O     0.62561   0.38426   0.27576   0.00000  Uiso   1.00
O321   O     0.54472   0.44366   0.26650   0.00000  Uiso   1.00
O322   O     0.60407   0.49040   0.25158   0.00000  Uiso   1.00
O323   O     0.60207   0.43044   0.25078   0.00000  Uiso   1.00
O324   O     0.62219   0.43065   0.32101   0.00000  Uiso   1.00
Si163  Si    0.54931   0.62775   0.15891   0.00000  Uiso   1.00
Si164  Si    0.54769   0.53080   0.17700   0.00000  Uiso   1.00
Si165  Si    0.62187   0.56068   0.13828   0.00000  Uiso   1.00
O325   O     0.56913   0.61726   0.19509   0.00000  Uiso   1.00
O326   O     0.53634   0.65858   0.16898   0.00000  Uiso   1.00
O327   O     0.59150   0.54810   0.17146   0.00000  Uiso   1.00
O328   O     0.51308   0.59949   0.14261   0.00000  Uiso   1.00
O329   O     0.52810   0.54495   0.14409   0.00000  Uiso   1.00
O330   O     0.53170   0.53551   0.21742   0.00000  Uiso   1.00
Si166  Si    0.51328   0.52305   0.25745   0.00000  Uiso   1.00
Si167  Si    0.50450   0.58846   0.27870   0.00000  Uiso   1.00
Si168  Si    0.57974   0.62063   0.23988   0.00000  Uiso   1.00
O331   O     0.54222   0.51515   0.28451   0.00000  Uiso   1.00
O332   O     0.62560   0.55092   0.27576   0.00000  Uiso   1.00
O333   O     0.54472   0.61033   0.26651   0.00000  Uiso   1.00
O334   O     0.60407   0.65707   0.25158   0.00000  Uiso   1.00
O335   O     0.60207   0.59711   0.25078   0.00000  Uiso   1.00
O336   O     0.62219   0.59731   0.32101   0.00000  Uiso   1.00
Si169  Si    0.54931   0.79442   0.15891   0.00000  Uiso   1.00
Si170  Si    0.54769   0.69746   0.17700   0.00000  Uiso   1.00
Si171  Si    0.62187   0.72734   0.13828   0.00000  Uiso   1.00
O337   O     0.56914   0.78392   0.19509   0.00000  Uiso   1.00
O338   O     0.53634   0.82525   0.16898   0.00000  Uiso   1.00
O339   O     0.59150   0.71476   0.17146   0.00000  Uiso   1.00
O340   O     0.51308   0.76616   0.14261   0.00000  Uiso   1.00
O341   O     0.52810   0.71162   0.14409   0.00000  Uiso   1.00
O342   O     0.53170   0.70217   0.21742   0.00000  Uiso   1.00
Si172  Si    0.51328   0.68971   0.25745   0.00000  Uiso   1.00
Si173  Si    0.50451   0.75513   0.27870   0.00000  Uiso   1.00
Si174  Si    0.57974   0.78730   0.23988   0.00000  Uiso   1.00
O343   O     0.54222   0.68181   0.28451   0.00000  Uiso   1.00
O344   O     0.62561   0.71759   0.27576   0.00000  Uiso   1.00
O345   O     0.54473   0.77699   0.26650   0.00000  Uiso   1.00
O346   O     0.60407   0.82374   0.25158   0.00000  Uiso   1.00
O347   O     0.60208   0.76377   0.25078   0.00000  Uiso   1.00
O348   O     0.62219   0.76398   0.32101   0.00000  Uiso   1.00
Si175  Si    0.54932   0.96109   0.15891   0.00000  Uiso   1.00
Si176  Si    0.54769   0.86413   0.17700   0.00000  Uiso   1.00
Si177  Si    0.62187   0.89401   0.13828   0.00000  Uiso   1.00
O349   O     0.56914   0.95059   0.19509   0.00000  Uiso   1.00
O350   O     0.53634   0.99192   0.16898   0.00000  Uiso   1.00
O351   O     0.59150   0.88143   0.17146   0.00000  Uiso   1.00
O352   O     0.51308   0.93283   0.14261   0.00000  Uiso   1.00
O353   O     0.52810   0.87828   0.14409   0.00000  Uiso   1.00
O354   O     0.53170   0.86884   0.21742   0.00000  Uiso   1.00
Si178  Si    0.51328   0.85638   0.25745   0.00000  Uiso   1.00
Si179  Si    0.50450   0.92180   0.27870   0.00000  Uiso   1.00
Si180  Si    0.57974   0.95397   0.23988   0.00000  Uiso   1.00
O355   O     0.54222   0.84849   0.28451   0.00000  Uiso   1.00
O356   O     0.62561   0.88426   0.27576   0.00000  Uiso   1.00
O357   O     0.54472   0.94366   0.26650   0.00000  Uiso   1.00
O358   O     0.60407   0.99040   0.25158   0.00000  Uiso   1.00
O359   O     0.60207   0.93044   0.25078   0.00000  Uiso   1.00
O360   O     0.62219   0.93065   0.32101   0.00000  Uiso   1.00
Si181  Si    0.67428   0.12778   0.15894   0.00000  Uiso   1.00
Si182  Si    0.67269   0.03081   0.17700   0.00000  Uiso   1.00
Si183  Si    0.74687   0.06068   0.13828   0.00000  Uiso   1.00
O361   O     0.69416   0.11740   0.19517   0.00000  Uiso   1.00
O362   O     0.66129   0.15860   0.16897   0.00000  Uiso   1.00
O363   O     0.71650   0.04810   0.17146   0.00000  Uiso   1.00
O364   O     0.63808   0.09949   0.14261   0.00000  Uiso   1.00
O365   O     0.65310   0.04495   0.14409   0.00000  Uiso   1.00
O366   O     0.65672   0.03554   0.21743   0.00000  Uiso   1.00
Si184  Si    0.63830   0.02309   0.25745   0.00000  Uiso   1.00
Si185  Si    0.62955   0.08853   0.27872   0.00000  Uiso   1.00
Si186  Si    0.70479   0.12090   0.23995   0.00000  Uiso   1.00
O367   O     0.66723   0.01519   0.28452   0.00000  Uiso   1.00
O368   O     0.75098   0.05140   0.27567   0.00000  Uiso   1.00
O369   O     0.66979   0.11042   0.26659   0.00000  Uiso   1.00
O370   O     0.72894   0.15741   0.25163   0.00000  Uiso   1.00
O371   O     0.72735   0.09754   0.25078   0.00000  Uiso   1.00
O372   O     0.74816   0.09807   0.32079   0.00000  Uiso   1.00
Si187  Si    0.67429   0.29445   0.15894   0.00000  Uiso   1.00
Si188  Si    0.67269   0.19747   0.17700   0.00000  Uiso   1.00
Si189  Si    0.74687   0.22734   0.13828   0.00000  Uiso   1.00
O373   O     0.69416   0.28407   0.19517   0.00000  Uiso   1.00
O374   O     0.66129   0.32526   0.16898   0.00000  Uiso   1.00
O375   O     0.71650   0.21476   0.17146   0.00000  Uiso   1.00
O376   O     0.63808   0.26616   0.14261   0.00000  Uiso   1.00
O377   O     0.65310   0.21162   0.14409   0.00000  Uiso   1.00
O378   O     0.65672   0.20221   0.21743   0.00000  Uiso   1.00
Si190  Si    0.63830   0.18976   0.25745   0.00000  Uiso   1.00
Si191  Si    0.62956   0.25520   0.27872   0.00000  Uiso   1.00
Si192  Si    0.70480   0.28758   0.23995   0.00000  Uiso   1.00
O379   O     0.66723   0.18185   0.28451   0.00000  Uiso   1.00
O380   O     0.75097   0.21806   0.27566   0.00000  Uiso   1.00
O381   O     0.66980   0.27709   0.26659   0.00000  Uiso   1.00
O382   O     0.72894   0.32408   0.25163   0.00000  Uiso   1.00
O383   O     0.72736   0.26422   0.25078   0.00000  Uiso   1.00
O384   O     0.74818   0.26475   0.32079   0.00000  Uiso   1.00
Si193  Si    0.67429   0.46111   0.15894   0.00000  Uiso   1.00
Si194  Si    0.67269   0.36414   0.17700   0.00000  Uiso   1.00
Si195  Si    0.74687   0.39401   0.13828   0.00000  Uiso   1.00
O385   O     0.69416   0.45074   0.19517   0.00000  Uiso   1.00
O386   O     0.66129   0.49193   0.16898   0.00000  Uiso   1.00
O387   O     0.71650   0.38143   0.17146   0.00000  Uiso   1.00
O388   O     0.63808   0.43283   0.14261   0.00000  Uiso   1.00
O389   O     0.65310   0.37828   0.14409   0.00000  Uiso   1.00
O390   O     0.65672   0.36888   0.21743   0.00000  Uiso   1.00
Si196  Si    0.63830   0.35643   0.25745   0.00000  Uiso   1.00
Si197  Si    0.62955   0.42186   0.27872   0.00000  Uiso   1.00
Si198  Si    0.70479   0.45424   0.23995   0.00000  Uiso   1.00
O391   O     0.66723   0.34852   0.28452   0.00000  Uiso   1.00
O392   O     0.75099   0.38474   0.27567   0.00000  Uiso   1.00
O393   O     0.66979   0.44375   0.26659   0.00000  Uiso   1.00
O394   O     0.72894   0.49075   0.25163   0.00000  Uiso   1.00
O395   O     0.72735   0.43088   0.25078   0.00000  Uiso   1.00
O396   O     0.74816   0.43141   0.32079   0.00000  Uiso   1.00
Si199  Si    0.67428   0.62778   0.15894   0.00000  Uiso   1.00
Si200  Si    0.67269   0.53081   0.17700   0.00000  Uiso   1.00
Si201  Si    0.74687   0.56068   0.13828   0.00000  Uiso   1.00
O397   O     0.69416   0.61740   0.19517   0.00000  Uiso   1.00
O398   O     0.66129   0.65860   0.16897   0.00000  Uiso   1.00
O399   O     0.71650   0.54810   0.17146   0.00000  Uiso   1.00
O400   O     0.63808   0.59949   0.14261   0.00000  Uiso   1.00
O401   O     0.65310   0.54495   0.14409   0.00000  Uiso   1.00
O402   O     0.65672   0.53554   0.21743   0.00000  Uiso   1.00
Si202  Si    0.63830   0.52309   0.25745   0.00000  Uiso   1.00
Si203  Si    0.62955   0.58853   0.27872   0.00000  Uiso   1.00
Si204  Si    0.70479   0.62090   0.23995   0.00000  Uiso   1.00
O403   O     0.66723   0.51519   0.28452   0.00000  Uiso   1.00
O404   O     0.75098   0.55140   0.27567   0.00000  Uiso   1.00
O405   O     0.66979   0.61042   0.26659   0.00000  Uiso   1.00
O406   O     0.72894   0.65741   0.25163   0.00000  Uiso   1.00
O407   O     0.72735   0.59754   0.25078   0.00000  Uiso   1.00
O408   O     0.74816   0.59807   0.32079   0.00000  Uiso   1.00
Si205  Si    0.67429   0.79445   0.15894   0.00000  Uiso   1.00
Si206  Si    0.67269   0.69747   0.17700   0.00000  Uiso   1.00
Si207  Si    0.74687   0.72734   0.13828   0.00000  Uiso   1.00
O409   O     0.69416   0.78407   0.19517   0.00000  Uiso   1.00
O410   O     0.66129   0.82526   0.16898   0.00000  Uiso   1.00
O411   O     0.71650   0.71476   0.17146   0.00000  Uiso   1.00
O412   O     0.63808   0.76616   0.14261   0.00000  Uiso   1.00
O413   O     0.65310   0.71162   0.14409   0.00000  Uiso   1.00
O414   O     0.65672   0.70221   0.21743   0.00000  Uiso   1.00
Si208  Si    0.63830   0.68976   0.25745   0.00000  Uiso   1.00
Si209  Si    0.62956   0.75520   0.27872   0.00000  Uiso   1.00
Si210  Si    0.70480   0.78758   0.23995   0.00000  Uiso   1.00
O415   O     0.66723   0.68185   0.28451   0.00000  Uiso   1.00
O416   O     0.75097   0.71806   0.27566   0.00000  Uiso   1.00
O417   O     0.66980   0.77709   0.26659   0.00000  Uiso   1.00
O418   O     0.72894   0.82408   0.25163   0.00000  Uiso   1.00
O419   O     0.72736   0.76422   0.25078   0.00000  Uiso   1.00
O420   O     0.74818   0.76475   0.32079   0.00000  Uiso   1.00
Si211  Si    0.67429   0.96111   0.15894   0.00000  Uiso   1.00
Si212  Si    0.67269   0.86414   0.17700   0.00000  Uiso   1.00
Si213  Si    0.74687   0.89401   0.13828   0.00000  Uiso   1.00
O421   O     0.69416   0.95074   0.19517   0.00000  Uiso   1.00
O422   O     0.66129   0.99193   0.16898   0.00000  Uiso   1.00
O423   O     0.71650   0.88143   0.17146   0.00000  Uiso   1.00
O424   O     0.63808   0.93283   0.14261   0.00000  Uiso   1.00
O425   O     0.65310   0.87828   0.14409   0.00000  Uiso   1.00
O426   O     0.65672   0.86888   0.21743   0.00000  Uiso   1.00
Si214  Si    0.63830   0.85643   0.25745   0.00000  Uiso   1.00
Si215  Si    0.62955   0.92186   0.27872   0.00000  Uiso   1.00
Si216  Si    0.70479   0.95424   0.23995   0.00000  Uiso   1.00
O427   O     0.66723   0.84852   0.28452   0.00000  Uiso   1.00
O428   O     0.75099   0.88474   0.27567   0.00000  Uiso   1.00
O429   O     0.66979   0.94375   0.26659   0.00000  Uiso   1.00
O430   O     0.72894   0.99075   0.25163   0.00000  Uiso   1.00
O431   O     0.72735   0.93088   0.25078   0.00000  Uiso   1.00
O432   O     0.74816   0.93141   0.32079   0.00000  Uiso   1.00
Si217  Si    0.79941   0.12789   0.15850   0.00000  Uiso   1.00
Si218  Si    0.79771   0.03080   0.17698   0.00000  Uiso   1.00
Si219  Si    0.87187   0.06068   0.13828   0.00000  Uiso   1.00
O433   O     0.81955   0.11754   0.19451   0.00000  Uiso   1.00
O434   O     0.78634   0.15859   0.16894   0.00000  Uiso   1.00
O435   O     0.84151   0.04810   0.17146   0.00000  Uiso   1.00
O436   O     0.76308   0.09949   0.14261   0.00000  Uiso   1.00
O437   O     0.77810   0.04495   0.14409   0.00000  Uiso   1.00
O438   O     0.78178   0.03559   0.21740   0.00000  Uiso   1.00
Si220  Si    0.76333   0.02332   0.25745   0.00000  Uiso   1.00
Si221  Si    0.75509   0.08906   0.27846   0.00000  Uiso   1.00
Si222  Si    0.83024   0.12111   0.23927   0.00000  Uiso   1.00
O439   O     0.79214   0.01525   0.28453   0.00000  Uiso   1.00
O440   O     0.87565   0.05122   0.27539   0.00000  Uiso   1.00
O441   O     0.79523   0.11087   0.26592   0.00000  Uiso   1.00
O442   O     0.85468   0.15759   0.25076   0.00000  Uiso   1.00
O443   O     0.85247   0.09754   0.25028   0.00000  Uiso   1.00
O444   O     0.87201   0.09753   0.32071   0.00000  Uiso   1.00
Si223  Si    0.79941   0.29456   0.15850   0.00000  Uiso   1.00
Si224  Si    0.79771   0.19747   0.17698   0.00000  Uiso   1.00
Si225  Si    0.87187   0.22734   0.13828   0.00000  Uiso   1.00
O445   O     0.81956   0.28420   0.19450   0.00000  Uiso   1.00
O446   O     0.78634   0.32525   0.16895   0.00000  Uiso   1.00
O447   O     0.84151   0.21476   0.17146   0.00000  Uiso   1.00
O448   O     0.76308   0.26616   0.14261   0.00000  Uiso   1.00
O449   O     0.77810   0.21162   0.14409   0.00000  Uiso   1.00
O450   O     0.78178   0.20225   0.21740   0.00000  Uiso   1.00
Si226  Si    0.76333   0.18999   0.25745   0.00000  Uiso   1.00
Si227  Si    0.75510   0.25573   0.27845   0.00000  Uiso   1.00
Si228  Si    0.83025   0.28776   0.23925   0.00000  Uiso   1.00
O451   O     0.79214   0.18192   0.28453   0.00000  Uiso   1.00
O452   O     0.87567   0.21787   0.27540   0.00000  Uiso   1.00
O453   O     0.79525   0.27753   0.26590   0.00000  Uiso   1.00
O454   O     0.85469   0.32423   0.25074   0.00000  Uiso   1.00
O455   O     0.85249   0.26419   0.25026   0.00000  Uiso   1.00
O456   O     0.87202   0.26419   0.32070   0.00000  Uiso   1.00
Si229  Si    0.79941   0.46123   0.15851   0.00000  Uiso   1.00
Si230  Si    0.79771   0.36413   0.17698   0.00000  Uiso   1.00
Si231  Si    0.87187   0.39401   0.13828   0.00000  Uiso   1.00
O457   O     0.81955   0.45088   0.19452   0.00000  Uiso   1.00
O458   O     0.78634   0.49193   0.16895   0.00000  Uiso   1.00
O459   O     0.84151   0.38143   0.17146   0.00000  Uiso   1.00
O460   O     0.76308   0.43283   0.14261   0.00000  Uiso   1.00
O461   O     0.77810   0.37828   0.14409   0.00000  Uiso   1.00
O462   O     0.78178   0.36893   0.21741   0.00000  Uiso   1.00
Si232  Si    0.76333   0.35666   0.25746   0.00000  Uiso   1.00
Si233  Si    0.75510   0.42240   0.27846   0.00000  Uiso   1.00
Si234  Si    0.83024   0.45445   0.23927   0.00000  Uiso   1.00
O463   O     0.79214   0.34858   0.28453   0.00000  Uiso   1.00
O464   O     0.87559   0.38451   0.27538   0.00000  Uiso   1.00
O465   O     0.79524   0.44422   0.26592   0.00000  Uiso   1.00
O466   O     0.85469   0.49093   0.25077   0.00000  Uiso   1.00
O467   O     0.85246   0.43087   0.25030   0.00000  Uiso   1.00
O468   O     0.87185   0.43074   0.32076   0.00000  Uiso   1.00
Si235  Si    0.79941   0.62789   0.15850   0.00000  Uiso   1.00
Si236  Si    0.79771   0.53080   0.17698   0.00000  Uiso   1.00
Si237  Si    0.87187   0.56068   0.13828   0.00000  Uiso   1.00
O469   O     0.81955   0.61754   0.19451   0.00000  Uiso   1.00
O470   O     0.78634   0.65859   0.16894   0.00000  Uiso   1.00
O471   O     0.84151   0.54810   0.17146   0.00000  Uiso   1.00
O472   O     0.76308   0.59949   0.14261   0.00000  Uiso   1.00
O473   O     0.77810   0.54495   0.14409   0.00000  Uiso   1.00
O474   O     0.78178   0.53559   0.21740   0.00000  Uiso   1.00
Si238  Si    0.76333   0.52332   0.25745   0.00000  Uiso   1.00
Si239  Si    0.75509   0.58906   0.27846   0.00000  Uiso   1.00
Si240  Si    0.83024   0.62111   0.23927   0.00000  Uiso   1.00
O475   O     0.79214   0.51525   0.28453   0.00000  Uiso   1.00
O476   O     0.87565   0.55122   0.27539   0.00000  Uiso   1.00
O477   O     0.79523   0.61087   0.26592   0.00000  Uiso   1.00
O478   O     0.85468   0.65759   0.25076   0.00000  Uiso   1.00
O479   O     0.85247   0.59754   0.25028   0.00000  Uiso   1.00
O480   O     0.87201   0.59753   0.32071   0.00000  Uiso   1.00
Si241  Si    0.79941   0.79456   0.15850   0.00000  Uiso   1.00
Si242  Si    0.79771   0.69747   0.17698   0.00000  Uiso   1.00
Si243  Si    0.87187   0.72734   0.13828   0.00000  Uiso   1.00
O481   O     0.81956   0.78420   0.19450   0.00000  Uiso   1.00
O482   O     0.78634   0.82525   0.16895   0.00000  Uiso   1.00
O483   O     0.84151   0.71476   0.17146   0.00000  Uiso   1.00
O484   O     0.76308   0.76616   0.14261   0.00000  Uiso   1.00
O485   O     0.77810   0.71162   0.14409   0.00000  Uiso   1.00
O486   O     0.78178   0.70225   0.21740   0.00000  Uiso   1.00
Si244  Si    0.76333   0.68999   0.25745   0.00000  Uiso   1.00
Si245  Si    0.75510   0.75573   0.27845   0.00000  Uiso   1.00
Si246  Si    0.83025   0.78776   0.23925   0.00000  Uiso   1.00
O487   O     0.79214   0.68192   0.28453   0.00000  Uiso   1.00
O488   O     0.87567   0.71787   0.27540   0.00000  Uiso   1.00
O489   O     0.79525   0.77753   0.26590   0.00000  Uiso   1.00
O490   O     0.85469   0.82423   0.25074   0.00000  Uiso   1.00
O491   O     0.85249   0.76419   0.25026   0.00000  Uiso   1.00
O492   O     0.87202   0.76419   0.32070   0.00000  Uiso   1.00
Si247  Si    0.79941   0.96123   0.15851   0.00000  Uiso   1.00
Si248  Si    0.79771   0.86413   0.17698   0.00000  Uiso   1.00
Si249  Si    0.87187   0.89401   0.13828   0.00000  Uiso   1.00
O493   O     0.81955   0.95088   0.19452   0.00000  Uiso   1.00
O494   O     0.78634   0.99193   0.16895   0.00000  Uiso   1.00
O495   O     0.84151   0.88143   0.17146   0.00000  Uiso   1.00
O496   O     0.76308   0.93283   0.14261   0.00000  Uiso   1.00
O497   O     0.77810   0.87828   0.14409   0.00000  Uiso   1.00
O498   O     0.78178   0.86893   0.21741   0.00000  Uiso   1.00
Si250  Si    0.76333   0.85666   0.25746   0.00000  Uiso   1.00
Si251  Si    0.75510   0.92240   0.27846   0.00000  Uiso   1.00
Si252  Si    0.83024   0.95445   0.23927   0.00000  Uiso   1.00
O499   O     0.79214   0.84858   0.28453   0.00000  Uiso   1.00
O500   O     0.87559   0.88451   0.27538   0.00000  Uiso   1.00
O501   O     0.79524   0.94422   0.26592   0.00000  Uiso   1.00
O502   O     0.85469   0.99093   0.25077   0.00000  Uiso   1.00
O503   O     0.85246   0.93087   0.25030   0.00000  Uiso   1.00
O504   O     0.87185   0.93074   0.32076   0.00000  Uiso   1.00
Si253  Si    0.92423   0.12770   0.15911   0.00000  Uiso   1.00
Si254  Si    0.92259   0.03063   0.17695   0.00000  Uiso   1.00
Si255  Si    0.99687   0.06068   0.13828   0.00000  Uiso   1.00
O505   O     0.94414   0.11712   0.19517   0.00000  Uiso   1.00
O506   O     0.91101   0.15830   0.16960   0.00000  Uiso   1.00
O507   O     0.96660   0.04707   0.17141   0.00000  Uiso   1.00
O508   O     0.88808   0.09949   0.14261   0.00000  Uiso   1.00
O509   O     0.90310   0.04495   0.14409   0.00000  Uiso   1.00
O510   O     0.90842   0.03636   0.21795   0.00000  Uiso   1.00
Si256  Si    0.88884   0.02356   0.25742   0.00000  Uiso   1.00
Si257  Si    0.87965   0.08882   0.27847   0.00000  Uiso   1.00
Si258  Si    0.95493   0.12067   0.23991   0.00000  Uiso   1.00
O511   O     0.91699   0.01541   0.28533   0.00000  Uiso   1.00
O512   O     1.00067   0.05087   0.27587   0.00000  Uiso   1.00
O513   O     0.91999   0.11062   0.26660   0.00000  Uiso   1.00
O514   O     0.97937   0.15711   0.25148   0.00000  Uiso   1.00
O515   O     0.97712   0.09706   0.25093   0.00000  Uiso   1.00
O516   O     0.99716   0.09720   0.32120   0.00000  Uiso   1.00
Si259  Si    0.92423   0.29437   0.15912   0.00000  Uiso   1.00
Si260  Si    0.92259   0.19729   0.17694   0.00000  Uiso   1.00
Si261  Si    0.99687   0.22734   0.13828   0.00000  Uiso   1.00
O517   O     0.94414   0.28377   0.19517   0.00000  Uiso   1.00
O518   O     0.91102   0.32496   0.16962   0.00000  Uiso   1.00
O519   O     0.96660   0.21374   0.17141   0.00000  Uiso   1.00
O520   O     0.88808   0.26616   0.14261   0.00000  Uiso   1.00
O521   O     0.90310   0.21162   0.14409   0.00000  Uiso   1.00
O522   O     0.90842   0.20301   0.21794   0.00000  Uiso   1.00
Si262  Si    0.88884   0.19021   0.25742   0.00000  Uiso   1.00
Si263  Si    0.87966   0.25548   0.27846   0.00000  Uiso   1.00
Si264  Si    0.95495   0.28731   0.23990   0.00000  Uiso   1.00
O523   O     0.91697   0.18203   0.28533   0.00000  Uiso   1.00
O524   O     1.00069   0.21751   0.27591   0.00000  Uiso   1.00
O525   O     0.92000   0.27726   0.26660   0.00000  Uiso   1.00
O526   O     0.97940   0.32373   0.25148   0.00000  Uiso   1.00
O527   O     0.97712   0.26368   0.25091   0.00000  Uiso   1.00
O528   O     0.99719   0.26388   0.32117   0.00000  Uiso   1.00
Si265  Si    0.92420   0.46101   0.15921   0.00000  Uiso   1.00
Si266  Si    0.92259   0.36396   0.17695   0.00000  Uiso   1.00
Si267  Si    0.99687   0.39401   0.13828   0.00000  Uiso   1.00
O529   O     0.94405   0.45041   0.19531   0.00000  Uiso   1.00
O530   O     0.91100   0.49163   0.16964   0.00000  Uiso   1.00
O531   O     0.96660   0.38041   0.17141   0.00000  Uiso   1.00
O532   O     0.88808   0.43283   0.14261   0.00000  Uiso   1.00
O533   O     0.90310   0.37828   0.14409   0.00000  Uiso   1.00
O534   O     0.90841   0.36969   0.21795   0.00000  Uiso   1.00
Si268  Si    0.88883   0.35687   0.25741   0.00000  Uiso   1.00
Si269  Si    0.87958   0.42210   0.27852   0.00000  Uiso   1.00
Si270  Si    0.95487   0.45396   0.24004   0.00000  Uiso   1.00
O535   O     0.91696   0.34873   0.28535   0.00000  Uiso   1.00
O536   O     1.00066   0.38415   0.27587   0.00000  Uiso   1.00
O537   O     0.91994   0.44391   0.26676   0.00000  Uiso   1.00
O538   O     0.97932   0.49039   0.25161   0.00000  Uiso   1.00
O539   O     0.97706   0.43033   0.25102   0.00000  Uiso   1.00
O540   O     0.99732   0.43051   0.32121   0.00000  Uiso   1.00
Si271  Si    0.92423   0.62770   0.15911   0.00000  Uiso   1.00
Si272  Si    0.92259   0.53063   0.17695   0.00000  Uiso   1.00
Si273  Si    0.99687   0.56068   0.13828   0.00000  Uiso   1.00
O541   O     0.94414   0.61712   0.19517   0.00000  Uiso   1.00
O542   O     0.91101   0.65830   0.16960   0.00000  Uiso   1.00
O543   O     0.96660   0.54707   0.17141   0.00000  Uiso   1.00
O544   O     0.88808   0.59949   0.14261   0.00000  Uiso   1.00
O545   O     0.90310   0.54495   0.14409   0.00000  Uiso   1.00
O546   O     0.90842   0.53636   0.21795   0.00000  Uiso   1.00
Si274  Si    0.88884   0.52356   0.25742   0.00000  Uiso   1.00
Si275  Si    0.87965   0.58882   0.27847   0.00000  Uiso   1.00
Si276  Si    0.95493   0.62067   0.23991   0.00000  Uiso   1.00
O547   O     0.91699   0.51541   0.28533   0.00000  Uiso   1.00
O548   O     1.00067   0.55087   0.27587   0.00000  Uiso   1.00
O549   O     0.91999   0.61062   0.26660   0.00000  Uiso   1.00
O550   O     0.97937   0.65711   0.25148   0.00000  Uiso   1.00
O551   O     0.97712   0.59706   0.25093   0.00000  Uiso   1.00
O552   O     0.99716   0.59720   0.32120   0.00000  Uiso   1.00
Si277  Si    0.92423   0.79437   0.15912   0.00000  Uiso   1.00
Si278  Si    0.92259   0.69729   0.17694   0.00000  Uiso   1.00
Si279  Si    0.99687   0.72734   0.13828   0.00000  Uiso   1.00
O553   O     0.94414   0.78377   0.19517   0.00000  Uiso   1.00
O554   O     0.91102   0.82496   0.16962   0.00000  Uiso   1.00
O555   O     0.96660   0.71374   0.17141   0.00000  Uiso   1.00
O556   O     0.88808   0.76616   0.14261   0.00000  Uiso   1.00
O557   O     0.90310   0.71162   0.14409   0.00000  Uiso   1.00
O558   O     0.90842   0.70301   0.21794   0.00000  Uiso   1.00
Si280  Si    0.88884   0.69021   0.25742   0.00000  Uiso   1.00
Si281  Si    0.87966   0.75548   0.27846   0.00000  Uiso   1.00
Si282  Si    0.95495   0.78731   0.23990   0.00000  Uiso   1.00
O559   O     0.91697   0.68203   0.28533   0.00000  Uiso   1.00
O560   O     1.00069   0.71751   0.27591   0.00000  Uiso   1.00
O561   O     0.92000   0.77726   0.26660   0.00000  Uiso   1.00
O562   O     0.97940   0.82373   0.25148   0.00000  Uiso   1.00
O563   O     0.97712   0.76368   0.25091   0.00000  Uiso   1.00
O564   O     0.99719   0.76388   0.32117   0.00000  Uiso   1.00
Si283  Si    0.92420   0.96101   0.15921   0.00000  Uiso   1.00
Si284  Si    0.92259   0.86396   0.17695   0.00000  Uiso   1.00
Si285  Si    0.99687   0.89401   0.13828   0.00000  Uiso   1.00
O565   O     0.94405   0.95041   0.19531   0.00000  Uiso   1.00
O566   O     0.91100   0.99163   0.16964   0.00000  Uiso   1.00
O567   O     0.96660   0.88041   0.17141   0.00000  Uiso   1.00
O568   O     0.88808   0.93283   0.14261   0.00000  Uiso   1.00
O569   O     0.90310   0.87828   0.14409   0.00000  Uiso   1.00
O570   O     0.90841   0.86969   0.21795   0.00000  Uiso   1.00
Si286  Si    0.88883   0.85687   0.25741   0.00000  Uiso   1.00
Si287  Si    0.87958   0.92210   0.27852   0.00000  Uiso   1.00
Si288  Si    0.95487   0.95396   0.24004   0.00000  Uiso   1.00
O571   O     0.91696   0.84873   0.28535   0.00000  Uiso   1.00
O572   O     1.00066   0.88415   0.27587   0.00000  Uiso   1.00
O573   O     0.91994   0.94391   0.26676   0.00000  Uiso   1.00
O574   O     0.97932   0.99039   0.25161   0.00000  Uiso   1.00
O575   O     0.97706   0.93033   0.25102   0.00000  Uiso   1.00
O576   O     0.99732   0.93051   0.32121   0.00000  Uiso   1.00
H1     H     0.03080   0.00178   0.30433   0.00000  Uiso   1.00
H2     H     0.13822   0.09215   0.33736   0.00000  Uiso   1.00
H3     H     0.02984   0.16794   0.30507   0.00000  Uiso   1.00
H4     H     0.13817   0.25880   0.33739   0.00000  Uiso   1.00
H5     H     0.02988   0.33459   0.30506   0.00000  Uiso   1.00
H6     H     0.13821   0.42548   0.33744   0.00000  Uiso   1.00
H7     H     0.03080   0.50178   0.30433   0.00000  Uiso   1.00
H8     H     0.13822   0.59215   0.33736   0.00000  Uiso   1.00
H9     H     0.02984   0.66794   0.30507   0.00000  Uiso   1.00
H10    H     0.13817   0.75880   0.33739   0.00000  Uiso   1.00
H11    H     0.02988   0.83459   0.30506   0.00000  Uiso   1.00
H12    H     0.13821   0.92548   0.33744   0.00000  Uiso   1.00
H13    H     0.15552   0.00171   0.30434   0.00000  Uiso   1.00
H14    H     0.26322   0.09212   0.33738   0.00000  Uiso   1.00
H15    H     0.15558   0.16850   0.30442   0.00000  Uiso   1.00
H16    H     0.26321   0.25877   0.33738   0.00000  Uiso   1.00
H17    H     0.15559   0.33506   0.30435   0.00000  Uiso   1.00
H18    H     0.26321   0.42544   0.33739   0.00000  Uiso   1.00
H19    H     0.15552   0.50171   0.30434   0.00000  Uiso   1.00
H20    H     0.26322   0.59212   0.33738   0.00000  Uiso   1.00
H21    H     0.15558   0.66850   0.30442   0.00000  Uiso   1.00
H22    H     0.26321   0.75877   0.33738   0.00000  Uiso   1.00
H23    H     0.15559   0.83506   0.30435   0.00000  Uiso   1.00
H24    H     0.26321   0.92544   0.33739   0.00000  Uiso   1.00
H25    H     0.28056   0.00169   0.30434   0.00000  Uiso   1.00
H26    H     0.38822   0.09213   0.33737   0.00000  Uiso   1.00
H27    H     0.28053   0.16834   0.30434   0.00000  Uiso   1.00
H28    H     0.38823   0.25880   0.33737   0.00000  Uiso   1.00
H29    H     0.28056   0.33502   0.30434   0.00000  Uiso   1.00
H30    H     0.38823   0.42546   0.33737   0.00000  Uiso   1.00
H31    H     0.28056   0.50169   0.30434   0.00000  Uiso   1.00
H32    H     0.38822   0.59213   0.33737   0.00000  Uiso   1.00
H33    H     0.28053   0.66834   0.30434   0.00000  Uiso   1.00
H34    H     0.38823   0.75880   0.33737   0.00000  Uiso   1.00
H35    H     0.28056   0.83502   0.30434   0.00000  Uiso   1.00
H36    H     0.38823   0.92546   0.33737   0.00000  Uiso   1.00
H37    H     0.40552   0.00168   0.30435   0.00000  Uiso   1.00
H38    H     0.51325   0.09216   0.33736   0.00000  Uiso   1.00
H39    H     0.40552   0.16834   0.30435   0.00000  Uiso   1.00
H40    H     0.51326   0.25882   0.33736   0.00000  Uiso   1.00
H41    H     0.40552   0.33501   0.30435   0.00000  Uiso   1.00
H42    H     0.51326   0.42549   0.33736   0.00000  Uiso   1.00
H43    H     0.40552   0.50168   0.30435   0.00000  Uiso   1.00
H44    H     0.51325   0.59216   0.33736   0.00000  Uiso   1.00
H45    H     0.40552   0.66834   0.30435   0.00000  Uiso   1.00
H46    H     0.51326   0.75882   0.33736   0.00000  Uiso   1.00
H47    H     0.40552   0.83501   0.30435   0.00000  Uiso   1.00
H48    H     0.51326   0.92549   0.33736   0.00000  Uiso   1.00
H49    H     0.53050   0.00169   0.30436   0.00000  Uiso   1.00
H50    H     0.63820   0.09216   0.33740   0.00000  Uiso   1.00
H51    H     0.53050   0.16835   0.30436   0.00000  Uiso   1.00
H52    H     0.63821   0.25883   0.33740   0.00000  Uiso   1.00
H53    H     0.53050   0.33502   0.30436   0.00000  Uiso   1.00
H54    H     0.63821   0.42550   0.33740   0.00000  Uiso   1.00
H55    H     0.53050   0.50169   0.30436   0.00000  Uiso   1.00
H56    H     0.63820   0.59216   0.33740   0.00000  Uiso   1.00
H57    H     0.53050   0.66835   0.30436   0.00000  Uiso   1.00
H58    H     0.63821   0.75883   0.33740   0.00000  Uiso   1.00
H59    H     0.53050   0.83502   0.30436   0.00000  Uiso   1.00
H60    H     0.63821   0.92550   0.33740   0.00000  Uiso   1.00
H61    H     0.65550   0.00171   0.30436   0.00000  Uiso   1.00
H62    H     0.76432   0.09298   0.33704   0.00000  Uiso   1.00
H63    H     0.65549   0.16838   0.30436   0.00000  Uiso   1.00
H64    H     0.76434   0.25965   0.33703   0.00000  Uiso   1.00
H65    H     0.65550   0.33505   0.30436   0.00000  Uiso   1.00
H66    H     0.76433   0.42633   0.33704   0.00000  Uiso   1.00
H67    H     0.65550   0.50171   0.30436   0.00000  Uiso   1.00
H68    H     0.76432   0.59298   0.33704   0.00000  Uiso   1.00
H69    H     0.65549   0.66838   0.30436   0.00000  Uiso   1.00
H70    H     0.76434   0.75965   0.33703   0.00000  Uiso   1.00
H71    H     0.65550   0.83505   0.30436   0.00000  Uiso   1.00
H72    H     0.76433   0.92633   0.33704   0.00000  Uiso   1.00
H73    H     0.78034   0.00188   0.30443   0.00000  Uiso   1.00
H74    H     0.88803   0.09247   0.33718   0.00000  Uiso   1.00
H75    H     0.78034   0.16855   0.30443   0.00000  Uiso   1.00
H76    H     0.88804   0.25915   0.33717   0.00000  Uiso   1.00
H77    H     0.78034   0.33524   0.30444   0.00000  Uiso   1.00
H78    H     0.88787   0.42571   0.33725   0.00000  Uiso   1.00
H79    H     0.78034   0.50188   0.30443   0.00000  Uiso   1.00
H80    H     0.88803   0.59247   0.33718   0.00000  Uiso   1.00
H81    H     0.78034   0.66855   0.30443   0.00000  Uiso   1.00
H82    H     0.88804   0.75915   0.33717   0.00000  Uiso   1.00
H83    H     0.78034   0.83524   0.30444   0.00000  Uiso   1.00
H84    H     0.88787   0.92571   0.33725   0.00000  Uiso   1.00
H85    H     0.90471   0.00191   0.30493   0.00000  Uiso   1.00
H86    H     1.01322   0.09210   0.33756   0.00000  Uiso   1.00
H87    H     0.90468   0.16854   0.30492   0.00000  Uiso   1.00
H88    H     1.01327   0.25879   0.33754   0.00000  Uiso   1.00
H89    H     0.90467   0.33524   0.30494   0.00000  Uiso   1.00
H90    H     1.01339   0.42538   0.33753   0.00000  Uiso   1.00
H91    H     0.90471   0.50191   0.30493   0.00000  Uiso   1.00
H92    H     1.01322   0.59210   0.33756   0.00000  Uiso   1.00
H93    H     0.90468   0.66854   0.30492   0.00000  Uiso   1.00
H94    H     1.01327   0.75879   0.33754   0.00000  Uiso   1.00
H95    H     0.90467   0.83524   0.30494   0.00000  Uiso   1.00
H96    H     1.01339   0.92538   0.33753   0.00000  Uiso   1.00
loop_
_geom_bond_atom_site_label_1
_geom_bond_atom_site_label_2
_geom_bond_distance
_geom_bond_site_symmetry_2
_ccdc_geom_bond_type
Si1    O1      1.665   .     D
Si1    O2      1.642   .     S
Si1    O4      1.653   .     S
Si2    O3      1.645   .     S
Si2    O5      1.649   .     S
Si2    O6      1.632   .     S
Si2    O62     1.641   1_545 S
Si3    O3      1.651   .     D
Si3    O76     1.616   .     S
Si3    O77     1.612   .     S
O1     Si6     1.666   .     S
O2     Si8     1.640   .     S
O4     Si255   1.616   1_455 D
O5     Si255   1.612   1_455 S
O6     Si4     1.629   .     S
Si4    O7      1.624   .     S
Si4    O512    1.610   1_455 S
Si4    O574    1.619   1_445 S
Si5    O9      1.612   .     S
Si5    O512    1.611   1_455 S
Si5    O515    1.613   1_455 S
Si5    O516    1.627   1_455 S
Si6    O9      1.615   .     S
Si6    O10     1.622   .     S
Si6    O11     1.614   .     S
O7     H1      0.946   .     S
O8     Si40    1.610   .     S
O8     Si41    1.611   .     S
O10    Si46    1.619   .     S
O11    Si41    1.613   .     S
O12    Si41    1.627   .     S
O12    H2      0.946   .     S
Si7    O13     1.665   .     D
Si7    O14     1.642   .     S
Si7    O16     1.653   .     S
Si8    O15     1.646   .     S
Si8    O17     1.648   .     S
Si8    O18     1.631   .     S
Si9    O15     1.652   .     D
Si9    O88     1.616   .     S
Si9    O89     1.612   .     S
O13    Si12    1.666   .     S
O14    Si14    1.640   .     S
O16    Si261   1.616   1_455 S
O17    Si261   1.612   1_455 D
O18    Si10    1.629   .     S
Si10   O19     1.624   .     S
Si10   O514    1.619   1_455 S
Si10   O524    1.610   1_455 S
Si11   O21     1.612   .     S
Si11   O524    1.611   1_455 S
Si11   O527    1.613   1_455 S
Si11   O528    1.627   1_455 S
Si12   O21     1.615   .     S
Si12   O22     1.622   .     S
Si12   O23     1.614   .     S
O19    H3      0.946   .     S
O20    Si46    1.610   .     S
O20    Si47    1.611   .     S
O22    Si52    1.619   .     S
O23    Si47    1.613   .     S
O24    Si47    1.627   .     S
O24    H4      0.946   .     S
Si13   O25     1.665   .     D
Si13   O26     1.641   .     S
Si13   O28     1.653   .     S
Si14   O27     1.646   .     S
Si14   O29     1.648   .     S
Si14   O30     1.631   .     S
Si15   O27     1.652   .     D
Si15   O100    1.616   .     S
Si15   O101    1.612   .     S
O25    Si18    1.667   .     S
O26    Si20    1.641   .     S
O28    Si267   1.616   1_455 S
O29    Si267   1.612   1_455 D
O30    Si16    1.629   .     S
Si16   O31     1.624   .     S
Si16   O526    1.619   1_455 S
Si16   O536    1.610   1_455 S
Si17   O33     1.612   .     S
Si17   O536    1.611   1_455 S
Si17   O539    1.613   1_455 S
Si17   O540    1.627   1_455 S
Si18   O33     1.615   .     S
Si18   O34     1.622   .     S
Si18   O35     1.614   .     S
O31    H5      0.946   .     S
O32    Si52    1.610   .     S
O32    Si53    1.611   .     S
O34    Si58    1.619   .     S
O35    Si53    1.613   .     S
O36    Si53    1.627   .     S
O36    H6      0.946   .     S
Si19   O37     1.665   .     D
Si19   O38     1.642   .     S
Si19   O40     1.653   .     S
Si20   O39     1.645   .     S
Si20   O41     1.649   .     S
Si20   O42     1.632   .     S
Si21   O39     1.651   .     D
Si21   O112    1.616   .     S
Si21   O113    1.612   .     S
O37    Si24    1.666   .     S
O38    Si26    1.640   .     S
O40    Si273   1.616   1_455 D
O41    Si273   1.612   1_455 S
O42    Si22    1.629   .     S
Si22   O43     1.624   .     S
Si22   O538    1.619   1_455 S
Si22   O548    1.610   1_455 S
Si23   O45     1.612   .     S
Si23   O548    1.611   1_455 S
Si23   O551    1.613   1_455 S
Si23   O552    1.627   1_455 S
Si24   O45     1.615   .     S
Si24   O46     1.622   .     S
Si24   O47     1.614   .     S
O43    H7      0.946   .     S
O44    Si58    1.610   .     S
O44    Si59    1.611   .     S
O46    Si64    1.619   .     S
O47    Si59    1.613   .     S
O48    Si59    1.627   .     S
O48    H8      0.946   .     S
Si25   O49     1.665   .     D
Si25   O50     1.642   .     S
Si25   O52     1.653   .     S
Si26   O51     1.646   .     S
Si26   O53     1.648   .     S
Si26   O54     1.631   .     S
Si27   O51     1.652   .     D
Si27   O124    1.616   .     S
Si27   O125    1.612   .     S
O49    Si30    1.666   .     S
O50    Si32    1.640   .     S
O52    Si279   1.616   1_455 S
O53    Si279   1.612   1_455 D
O54    Si28    1.629   .     S
Si28   O55     1.624   .     S
Si28   O550    1.619   1_455 S
Si28   O560    1.610   1_455 S
Si29   O57     1.612   .     S
Si29   O560    1.611   1_455 S
Si29   O563    1.613   1_455 S
Si29   O564    1.627   1_455 S
Si30   O57     1.615   .     S
Si30   O58     1.622   .     S
Si30   O59     1.614   .     S
O55    H9      0.946   .     S
O56    Si64    1.610   .     S
O56    Si65    1.611   .     S
O58    Si70    1.619   .     S
O59    Si65    1.613   .     S
O60    Si65    1.627   .     S
O60    H10     0.946   .     S
Si31   O61     1.665   .     D
Si31   O62     1.641   .     S
Si31   O64     1.653   .     S
Si32   O63     1.646   .     S
Si32   O65     1.648   .     S
Si32   O66     1.631   .     S
Si33   O63     1.652   .     D
Si33   O136    1.616   .     S
Si33   O137    1.612   .     S
O61    Si36    1.667   .     S
O62    Si2     1.641   1_565 S
O64    Si285   1.616   1_455 S
O65    Si285   1.612   1_455 D
O66    Si34    1.629   .     S
Si34   O67     1.624   .     S
Si34   O562    1.619   1_455 S
Si34   O572    1.610   1_455 S
Si35   O69     1.612   .     S
Si35   O572    1.611   1_455 S
Si35   O575    1.613   1_455 S
Si35   O576    1.627   1_455 S
Si36   O69     1.615   .     S
Si36   O70     1.622   .     S
Si36   O71     1.614   .     S
O67    H11     0.946   .     S
O68    Si70    1.610   .     S
O68    Si71    1.611   .     S
O70    Si40    1.619   1_565 S
O71    Si71    1.613   .     S
O72    Si71    1.627   .     S
O72    H12     0.946   .     S
Si37   O73     1.665   .     D
Si37   O74     1.641   .     S
Si37   O76     1.653   .     S
Si38   O75     1.645   .     S
Si38   O77     1.649   .     S
Si38   O78     1.632   .     S
Si38   O134    1.640   1_545 S
Si39   O75     1.652   .     D
Si39   O148    1.616   .     S
Si39   O149    1.612   .     S
O73    Si42    1.666   .     S
O74    Si44    1.641   .     S
O78    Si40    1.629   .     S
Si40   O70     1.619   1_545 S
Si40   O79     1.624   .     S
Si41   O81     1.612   .     S
Si42   O81     1.615   .     S
Si42   O82     1.622   .     S
Si42   O83     1.614   .     S
O79    H13     0.946   .     S
O80    Si76    1.610   .     S
O80    Si77    1.611   .     S
O82    Si82    1.619   .     S
O83    Si77    1.613   .     S
O84    Si77    1.627   .     S
O84    H14     0.946   .     S
Si43   O85     1.665   .     D
Si43   O86     1.641   .     S
Si43   O88     1.653   .     S
Si44   O87     1.645   .     S
Si44   O89     1.649   .     S
Si44   O90     1.632   .     S
Si45   O87     1.652   .     D
Si45   O160    1.616   .     S
Si45   O161    1.612   .     S
O85    Si48    1.666   .     S
O86    Si50    1.641   .     S
O90    Si46    1.629   .     S
Si46   O91     1.624   .     S
Si47   O93     1.612   .     S
Si48   O93     1.615   .     S
Si48   O94     1.622   .     S
Si48   O95     1.614   .     S
O91    H15     0.946   .     S
O92    Si82    1.610   .     S
O92    Si83    1.611   .     S
O94    Si88    1.619   .     S
O95    Si83    1.613   .     S
O96    Si83    1.627   .     S
O96    H16     0.946   .     S
Si49   O97     1.665   .     D
Si49   O98     1.641   .     S
Si49   O100    1.653   .     S
Si50   O99     1.645   .     S
Si50   O101    1.649   .     S
Si50   O102    1.632   .     S
Si51   O99     1.652   .     D
Si51   O172    1.616   .     S
Si51   O173    1.612   .     S
O97    Si54    1.667   .     S
O98    Si56    1.640   .     S
O102   Si52    1.629   .     S
Si52   O103    1.624   .     S
Si53   O105    1.612   .     S
Si54   O105    1.615   .     S
Si54   O106    1.622   .     S
Si54   O107    1.614   .     S
O103   H17     0.946   .     S
O104   Si88    1.610   .     S
O104   Si89    1.611   .     S
O106   Si94    1.619   .     S
O107   Si89    1.613   .     S
O108   Si89    1.627   .     S
O108   H18     0.946   .     S
Si55   O109    1.665   .     D
Si55   O110    1.641   .     S
Si55   O112    1.653   .     S
Si56   O111    1.645   .     S
Si56   O113    1.649   .     S
Si56   O114    1.632   .     S
Si57   O111    1.652   .     D
Si57   O184    1.616   .     S
Si57   O185    1.612   .     S
O109   Si60    1.666   .     S
O110   Si62    1.641   .     S
O114   Si58    1.629   .     S
Si58   O115    1.624   .     S
Si59   O117    1.612   .     S
Si60   O117    1.615   .     S
Si60   O118    1.622   .     S
Si60   O119    1.614   .     S
O115   H19     0.946   .     S
O116   Si94    1.610   .     S
O116   Si95    1.611   .     S
O118   Si100   1.619   .     S
O119   Si95    1.613   .     S
O120   Si95    1.627   .     S
O120   H20     0.946   .     S
Si61   O121    1.665   .     D
Si61   O122    1.641   .     S
Si61   O124    1.653   .     S
Si62   O123    1.645   .     S
Si62   O125    1.649   .     S
Si62   O126    1.632   .     S
Si63   O123    1.652   .     D
Si63   O196    1.616   .     S
Si63   O197    1.612   .     S
O121   Si66    1.666   .     S
O122   Si68    1.641   .     S
O126   Si64    1.629   .     S
Si64   O127    1.624   .     S
Si65   O129    1.612   .     S
Si66   O129    1.615   .     S
Si66   O130    1.622   .     S
Si66   O131    1.614   .     S
O127   H21     0.946   .     S
O128   Si100   1.610   .     S
O128   Si101   1.611   .     S
O130   Si106   1.619   .     S
O131   Si101   1.613   .     S
O132   Si101   1.627   .     S
O132   H22     0.946   .     S
Si67   O133    1.665   .     D
Si67   O134    1.641   .     S
Si67   O136    1.653   .     S
Si68   O135    1.645   .     S
Si68   O137    1.649   .     S
Si68   O138    1.632   .     S
Si69   O135    1.652   .     D
Si69   O208    1.616   .     S
Si69   O209    1.612   .     S
O133   Si72    1.667   .     S
O134   Si38    1.640   1_565 S
O138   Si70    1.629   .     S
Si70   O139    1.624   .     S
Si71   O141    1.612   .     S
Si72   O141    1.615   .     S
Si72   O142    1.622   .     S
Si72   O143    1.614   .     S
O139   H23     0.946   .     S
O140   Si106   1.610   .     S
O140   Si107   1.611   .     S
O142   Si76    1.619   1_565 S
O143   Si107   1.613   .     S
O144   Si107   1.627   .     S
O144   H24     0.946   .     S
Si73   O145    1.665   .     D
Si73   O146    1.641   .     S
Si73   O148    1.653   .     S
Si74   O147    1.645   .     S
Si74   O149    1.649   .     S
Si74   O150    1.632   .     S
Si74   O206    1.641   1_545 S
Si75   O147    1.652   .     D
Si75   O220    1.616   .     S
Si75   O221    1.612   .     S
O145   Si78    1.666   .     S
O146   Si80    1.641   .     S
O150   Si76    1.629   .     S
Si76   O142    1.619   1_545 S
Si76   O151    1.624   .     S
Si77   O153    1.612   .     S
Si78   O153    1.615   .     S
Si78   O154    1.622   .     S
Si78   O155    1.614   .     S
O151   H25     0.946   .     S
O152   Si112   1.610   .     S
O152   Si113   1.611   .     S
O154   Si118   1.619   .     S
O155   Si113   1.613   .     S
O156   Si113   1.627   .     S
O156   H26     0.946   .     S
Si79   O157    1.665   .     D
Si79   O158    1.641   .     S
Si79   O160    1.653   .     S
Si80   O159    1.645   .     S
Si80   O161    1.649   .     S
Si80   O162    1.632   .     S
Si81   O159    1.652   .     D
Si81   O232    1.616   .     S
Si81   O233    1.612   .     S
O157   Si84    1.666   .     S
O158   Si86    1.641   .     S
O162   Si82    1.629   .     S
Si82   O163    1.624   .     S
Si83   O165    1.612   .     S
Si84   O165    1.615   .     S
Si84   O166    1.622   .     S
Si84   O167    1.614   .     S
O163   H27     0.946   .     S
O164   Si118   1.610   .     S
O164   Si119   1.611   .     S
O166   Si124   1.619   .     S
O167   Si119   1.613   .     S
O168   Si119   1.627   .     S
O168   H28     0.946   .     S
Si85   O169    1.665   .     D
Si85   O170    1.641   .     S
Si85   O172    1.653   .     S
Si86   O171    1.645   .     S
Si86   O173    1.649   .     S
Si86   O174    1.632   .     S
Si87   O171    1.652   .     D
Si87   O244    1.616   .     S
Si87   O245    1.612   .     S
O169   Si90    1.666   .     S
O170   Si92    1.641   .     S
O174   Si88    1.629   .     S
Si88   O175    1.624   .     S
Si89   O177    1.612   .     S
Si90   O177    1.615   .     S
Si90   O178    1.622   .     S
Si90   O179    1.614   .     S
O175   H29     0.946   .     S
O176   Si124   1.610   .     S
O176   Si125   1.611   .     S
O178   Si130   1.619   .     S
O179   Si125   1.613   .     S
O180   Si125   1.627   .     S
O180   H30     0.946   .     S
Si91   O181    1.665   .     D
Si91   O182    1.641   .     S
Si91   O184    1.653   .     S
Si92   O183    1.645   .     S
Si92   O185    1.649   .     S
Si92   O186    1.632   .     S
Si93   O183    1.652   .     D
Si93   O256    1.616   .     S
Si93   O257    1.612   .     S
O181   Si96    1.666   .     S
O182   Si98    1.641   .     S
O186   Si94    1.629   .     S
Si94   O187    1.624   .     S
Si95   O189    1.612   .     S
Si96   O189    1.615   .     S
Si96   O190    1.622   .     S
Si96   O191    1.614   .     S
O187   H31     0.946   .     S
O188   Si130   1.610   .     S
O188   Si131   1.611   .     S
O190   Si136   1.619   .     S
O191   Si131   1.613   .     S
O192   Si131   1.627   .     S
O192   H32     0.946   .     S
Si97   O193    1.665   .     D
Si97   O194    1.641   .     S
Si97   O196    1.653   .     S
Si98   O195    1.645   .     S
Si98   O197    1.649   .     S
Si98   O198    1.632   .     S
Si99   O195    1.652   .     D
Si99   O268    1.616   .     S
Si99   O269    1.612   .     S
O193   Si102   1.666   .     S
O194   Si104   1.641   .     S
O198   Si100   1.629   .     S
Si100  O199    1.624   .     S
Si101  O201    1.612   .     S
Si102  O201    1.615   .     S
Si102  O202    1.622   .     S
Si102  O203    1.614   .     S
O199   H33     0.946   .     S
O200   Si136   1.610   .     S
O200   Si137   1.611   .     S
O202   Si142   1.619   .     S
O203   Si137   1.613   .     S
O204   Si137   1.627   .     S
O204   H34     0.946   .     S
Si103  O205    1.665   .     D
Si103  O206    1.641   .     S
Si103  O208    1.653   .     S
Si104  O207    1.645   .     S
Si104  O209    1.649   .     S
Si104  O210    1.632   .     S
Si105  O207    1.652   .     D
Si105  O280    1.616   .     S
Si105  O281    1.612   .     S
O205   Si108   1.666   .     S
O206   Si74    1.641   1_565 S
O210   Si106   1.629   .     S
Si106  O211    1.624   .     S
Si107  O213    1.612   .     S
Si108  O213    1.615   .     S
Si108  O214    1.622   .     S
Si108  O215    1.614   .     S
O211   H35     0.946   .     S
O212   Si142   1.610   .     S
O212   Si143   1.611   .     S
O214   Si112   1.619   1_565 S
O215   Si143   1.613   .     S
O216   Si143   1.627   .     S
O216   H36     0.946   .     S
Si109  O217    1.665   .     D
Si109  O218    1.641   .     S
Si109  O220    1.653   .     S
Si110  O219    1.645   .     S
Si110  O221    1.649   .     S
Si110  O222    1.632   .     S
Si110  O278    1.640   1_545 S
Si111  O219    1.652   .     D
Si111  O292    1.616   .     S
Si111  O293    1.612   .     S
O217   Si114   1.666   .     S
O218   Si116   1.640   .     S
O222   Si112   1.629   .     S
Si112  O214    1.619   1_545 S
Si112  O223    1.624   .     S
Si113  O225    1.612   .     S
Si114  O225    1.615   .     S
Si114  O226    1.622   .     S
Si114  O227    1.614   .     S
O223   H37     0.946   .     S
O224   Si148   1.610   .     S
O224   Si149   1.611   .     S
O226   Si154   1.619   .     S
O227   Si149   1.613   .     S
O228   Si149   1.627   .     S
O228   H38     0.946   .     S
Si115  O229    1.665   .     D
Si115  O230    1.641   .     S
Si115  O232    1.653   .     S
Si116  O231    1.645   .     S
Si116  O233    1.649   .     S
Si116  O234    1.632   .     S
Si117  O231    1.652   .     D
Si117  O304    1.616   .     S
Si117  O305    1.612   .     S
O229   Si120   1.666   .     S
O230   Si122   1.640   .     S
O234   Si118   1.629   .     S
Si118  O235    1.624   .     S
Si119  O237    1.612   .     S
Si120  O237    1.615   .     S
Si120  O238    1.622   .     S
Si120  O239    1.614   .     S
O235   H39     0.946   .     S
O236   Si154   1.610   .     S
O236   Si155   1.611   .     S
O238   Si160   1.619   .     S
O239   Si155   1.614   .     S
O240   Si155   1.627   .     S
O240   H40     0.946   .     S
Si121  O241    1.665   .     D
Si121  O242    1.641   .     S
Si121  O244    1.653   .     S
Si122  O243    1.645   .     S
Si122  O245    1.649   .     S
Si122  O246    1.632   .     S
Si123  O243    1.652   .     D
Si123  O316    1.616   .     S
Si123  O317    1.612   .     S
O241   Si126   1.666   .     S
O242   Si128   1.640   .     S
O246   Si124   1.629   .     S
Si124  O247    1.624   .     S
Si125  O249    1.612   .     S
Si126  O249    1.615   .     S
Si126  O250    1.622   .     S
Si126  O251    1.614   .     S
O247   H41     0.946   .     S
O248   Si160   1.610   .     S
O248   Si161   1.611   .     S
O250   Si166   1.619   .     S
O251   Si161   1.614   .     S
O252   Si161   1.627   .     S
O252   H42     0.946   .     S
Si127  O253    1.665   .     D
Si127  O254    1.641   .     S
Si127  O256    1.653   .     S
Si128  O255    1.645   .     S
Si128  O257    1.649   .     S
Si128  O258    1.632   .     S
Si129  O255    1.652   .     D
Si129  O328    1.616   .     S
Si129  O329    1.612   .     S
O253   Si132   1.666   .     S
O254   Si134   1.640   .     S
O258   Si130   1.629   .     S
Si130  O259    1.624   .     S
Si131  O261    1.612   .     S
Si132  O261    1.615   .     S
Si132  O262    1.622   .     S
Si132  O263    1.614   .     S
O259   H43     0.946   .     S
O260   Si166   1.610   .     S
O260   Si167   1.611   .     S
O262   Si172   1.619   .     S
O263   Si167   1.613   .     S
O264   Si167   1.627   .     S
O264   H44     0.946   .     S
Si133  O265    1.665   .     D
Si133  O266    1.641   .     S
Si133  O268    1.653   .     S
Si134  O267    1.645   .     S
Si134  O269    1.649   .     S
Si134  O270    1.632   .     S
Si135  O267    1.652   .     D
Si135  O340    1.616   .     S
Si135  O341    1.612   .     S
O265   Si138   1.666   .     S
O266   Si140   1.640   .     S
O270   Si136   1.629   .     S
Si136  O271    1.624   .     S
Si137  O273    1.612   .     S
Si138  O273    1.615   .     S
Si138  O274    1.622   .     S
Si138  O275    1.614   .     S
O271   H45     0.946   .     S
O272   Si172   1.610   .     S
O272   Si173   1.611   .     S
O274   Si178   1.619   .     S
O275   Si173   1.614   .     S
O276   Si173   1.627   .     S
O276   H46     0.946   .     S
Si139  O277    1.665   .     D
Si139  O278    1.641   .     S
Si139  O280    1.653   .     S
Si140  O279    1.645   .     S
Si140  O281    1.649   .     S
Si140  O282    1.632   .     S
Si141  O279    1.652   .     D
Si141  O352    1.616   .     S
Si141  O353    1.612   .     S
O277   Si144   1.666   .     S
O278   Si110   1.640   1_565 S
O282   Si142   1.629   .     S
Si142  O283    1.624   .     S
Si143  O285    1.612   .     S
Si144  O285    1.615   .     S
Si144  O286    1.622   .     S
Si144  O287    1.614   .     S
O283   H47     0.946   .     S
O284   Si178   1.610   .     S
O284   Si179   1.611   .     S
O286   Si148   1.619   1_565 S
O287   Si179   1.614   .     S
O288   Si179   1.627   .     S
O288   H48     0.946   .     S
Si145  O289    1.665   .     D
Si145  O290    1.641   .     S
Si145  O292    1.653   .     S
Si146  O291    1.645   .     S
Si146  O293    1.649   .     S
Si146  O294    1.632   .     S
Si146  O350    1.640   1_545 S
Si147  O291    1.652   .     D
Si147  O364    1.616   .     S
Si147  O365    1.612   .     S
O289   Si150   1.667   .     S
O290   Si152   1.640   .     S
O294   Si148   1.629   .     S
Si148  O286    1.619   1_545 S
Si148  O295    1.624   .     S
Si149  O297    1.612   .     S
Si150  O297    1.615   .     S
Si150  O298    1.622   .     S
Si150  O299    1.614   .     S
O295   H49     0.946   .     S
O296   Si184   1.610   .     S
O296   Si185   1.611   .     S
O298   Si190   1.620   .     S
O299   Si185   1.614   .     S
O300   Si185   1.627   .     S
O300   H50     0.946   .     S
Si151  O301    1.665   .     D
Si151  O302    1.641   .     S
Si151  O304    1.653   .     S
Si152  O303    1.645   .     S
Si152  O305    1.649   .     S
Si152  O306    1.632   .     S
Si153  O303    1.652   .     D
Si153  O376    1.616   .     S
Si153  O377    1.612   .     S
O301   Si156   1.667   .     S
O302   Si158   1.640   .     S
O306   Si154   1.629   .     S
Si154  O307    1.624   .     S
Si155  O309    1.612   .     S
Si156  O309    1.615   .     S
Si156  O310    1.622   .     S
Si156  O311    1.614   .     S
O307   H51     0.946   .     S
O308   Si190   1.610   .     S
O308   Si191   1.611   .     S
O310   Si196   1.620   .     S
O311   Si191   1.614   .     S
O312   Si191   1.627   .     S
O312   H52     0.946   .     S
Si157  O313    1.665   .     D
Si157  O314    1.641   .     S
Si157  O316    1.653   .     S
Si158  O315    1.645   .     S
Si158  O317    1.649   .     S
Si158  O318    1.632   .     S
Si159  O315    1.652   .     D
Si159  O388    1.616   .     S
Si159  O389    1.612   .     S
O313   Si162   1.667   .     S
O314   Si164   1.640   .     S
O318   Si160   1.629   .     S
Si160  O319    1.624   .     S
Si161  O321    1.612   .     S
Si162  O321    1.615   .     S
Si162  O322    1.622   .     S
Si162  O323    1.614   .     S
O319   H53     0.946   .     S
O320   Si196   1.610   .     S
O320   Si197   1.611   .     S
O322   Si202   1.620   .     S
O323   Si197   1.614   .     S
O324   Si197   1.627   .     S
O324   H54     0.946   .     S
Si163  O325    1.665   .     D
Si163  O326    1.641   .     S
Si163  O328    1.653   .     S
Si164  O327    1.645   .     S
Si164  O329    1.649   .     S
Si164  O330    1.632   .     S
Si165  O327    1.652   .     D
Si165  O400    1.616   .     S
Si165  O401    1.612   .     S
O325   Si168   1.667   .     S
O326   Si170   1.640   .     S
O330   Si166   1.629   .     S
Si166  O331    1.624   .     S
Si167  O333    1.612   .     S
Si168  O333    1.615   .     S
Si168  O334    1.622   .     S
Si168  O335    1.614   .     S
O331   H55     0.946   .     S
O332   Si202   1.610   .     S
O332   Si203   1.611   .     S
O334   Si208   1.620   .     S
O335   Si203   1.614   .     S
O336   Si203   1.627   .     S
O336   H56     0.946   .     S
Si169  O337    1.665   .     D
Si169  O338    1.641   .     S
Si169  O340    1.653   .     S
Si170  O339    1.645   .     S
Si170  O341    1.649   .     S
Si170  O342    1.632   .     S
Si171  O339    1.652   .     D
Si171  O412    1.616   .     S
Si171  O413    1.612   .     S
O337   Si174   1.667   .     S
O338   Si176   1.640   .     S
O342   Si172   1.629   .     S
Si172  O343    1.624   .     S
Si173  O345    1.612   .     S
Si174  O345    1.615   .     S
Si174  O346    1.622   .     S
Si174  O347    1.614   .     S
O343   H57     0.946   .     S
O344   Si208   1.610   .     S
O344   Si209   1.611   .     S
O346   Si214   1.620   .     S
O347   Si209   1.614   .     S
O348   Si209   1.627   .     S
O348   H58     0.946   .     S
Si175  O349    1.665   .     D
Si175  O350    1.641   .     S
Si175  O352    1.653   .     S
Si176  O351    1.645   .     S
Si176  O353    1.649   .     S
Si176  O354    1.632   .     S
Si177  O351    1.652   .     D
Si177  O424    1.616   .     S
Si177  O425    1.612   .     S
O349   Si180   1.667   .     S
O350   Si146   1.640   1_565 S
O354   Si178   1.629   .     S
Si178  O355    1.624   .     S
Si179  O357    1.612   .     S
Si180  O357    1.615   .     S
Si180  O358    1.622   .     S
Si180  O359    1.614   .     S
O355   H59     0.946   .     S
O356   Si214   1.610   .     S
O356   Si215   1.611   .     S
O358   Si184   1.620   1_565 S
O359   Si215   1.614   .     S
O360   Si215   1.627   .     S
O360   H60     0.946   .     S
Si181  O361    1.665   .     D
Si181  O362    1.641   .     S
Si181  O364    1.653   .     S
Si182  O363    1.645   .     S
Si182  O365    1.648   .     S
Si182  O366    1.632   .     S
Si182  O422    1.640   1_545 S
Si183  O363    1.652   .     D
Si183  O436    1.616   .     S
Si183  O437    1.612   .     S
O361   Si186   1.667   .     S
O362   Si188   1.640   .     S
O366   Si184   1.629   .     S
Si184  O358    1.620   1_545 S
Si184  O367    1.624   .     S
Si185  O369    1.612   .     S
Si186  O369    1.615   .     S
Si186  O370    1.622   .     S
Si186  O371    1.614   .     S
O367   H61     0.946   .     S
O368   Si220   1.611   .     S
O368   Si221   1.611   .     S
O370   Si226   1.620   .     S
O371   Si221   1.614   .     S
O372   Si221   1.627   .     S
O372   H62     0.946   .     S
Si187  O373    1.665   .     D
Si187  O374    1.641   .     S
Si187  O376    1.653   .     S
Si188  O375    1.645   .     S
Si188  O377    1.648   .     S
Si188  O378    1.632   .     S
Si189  O375    1.652   .     D
Si189  O448    1.616   .     S
Si189  O449    1.612   .     S
O373   Si192   1.667   .     S
O374   Si194   1.640   .     S
O378   Si190   1.629   .     S
Si190  O379    1.624   .     S
Si191  O381    1.612   .     S
Si192  O381    1.615   .     S
Si192  O382    1.622   .     S
Si192  O383    1.614   .     S
O379   H63     0.946   .     S
O380   Si226   1.611   .     S
O380   Si227   1.611   .     S
O382   Si232   1.620   .     S
O383   Si227   1.614   .     S
O384   Si227   1.627   .     S
O384   H64     0.946   .     S
Si193  O385    1.665   .     D
Si193  O386    1.641   .     S
Si193  O388    1.653   .     S
Si194  O387    1.645   .     S
Si194  O389    1.648   .     S
Si194  O390    1.632   .     S
Si195  O387    1.652   .     D
Si195  O460    1.616   .     S
Si195  O461    1.612   .     S
O385   Si198   1.667   .     S
O386   Si200   1.640   .     S
O390   Si196   1.629   .     S
Si196  O391    1.624   .     S
Si197  O393    1.612   .     S
Si198  O393    1.615   .     S
Si198  O394    1.622   .     S
Si198  O395    1.614   .     S
O391   H65     0.946   .     S
O392   Si232   1.611   .     S
O392   Si233   1.611   .     S
O394   Si238   1.620   .     S
O395   Si233   1.614   .     S
O396   Si233   1.627   .     S
O396   H66     0.946   .     S
Si199  O397    1.665   .     D
Si199  O398    1.641   .     S
Si199  O400    1.653   .     S
Si200  O399    1.645   .     S
Si200  O401    1.648   .     S
Si200  O402    1.632   .     S
Si201  O399    1.652   .     D
Si201  O472    1.616   .     S
Si201  O473    1.612   .     S
O397   Si204   1.667   .     S
O398   Si206   1.640   .     S
O402   Si202   1.629   .     S
Si202  O403    1.624   .     S
Si203  O405    1.612   .     S
Si204  O405    1.615   .     S
Si204  O406    1.622   .     S
Si204  O407    1.614   .     S
O403   H67     0.946   .     S
O404   Si238   1.611   .     S
O404   Si239   1.611   .     S
O406   Si244   1.620   .     S
O407   Si239   1.614   .     S
O408   Si239   1.627   .     S
O408   H68     0.946   .     S
Si205  O409    1.665   .     D
Si205  O410    1.641   .     S
Si205  O412    1.653   .     S
Si206  O411    1.645   .     S
Si206  O413    1.648   .     S
Si206  O414    1.632   .     S
Si207  O411    1.652   .     D
Si207  O484    1.616   .     S
Si207  O485    1.612   .     S
O409   Si210   1.667   .     S
O410   Si212   1.640   .     S
O414   Si208   1.629   .     S
Si208  O415    1.624   .     S
Si209  O417    1.612   .     S
Si210  O417    1.615   .     S
Si210  O418    1.622   .     S
Si210  O419    1.614   .     S
O415   H69     0.946   .     S
O416   Si244   1.611   .     S
O416   Si245   1.611   .     S
O418   Si250   1.620   .     S
O419   Si245   1.614   .     S
O420   Si245   1.627   .     S
O420   H70     0.946   .     S
Si211  O421    1.665   .     D
Si211  O422    1.641   .     S
Si211  O424    1.653   .     S
Si212  O423    1.645   .     S
Si212  O425    1.648   .     S
Si212  O426    1.632   .     S
Si213  O423    1.652   .     D
Si213  O496    1.616   .     S
Si213  O497    1.612   .     S
O421   Si216   1.667   .     S
O422   Si182   1.640   1_565 S
O426   Si214   1.629   .     S
Si214  O427    1.624   .     S
Si215  O429    1.612   .     S
Si216  O429    1.615   .     S
Si216  O430    1.622   .     S
Si216  O431    1.614   .     S
O427   H71     0.946   .     S
O428   Si250   1.611   .     S
O428   Si251   1.611   .     S
O430   Si220   1.620   1_565 S
O431   Si251   1.614   .     S
O432   Si251   1.627   .     S
O432   H72     0.946   .     S
Si217  O433    1.665   .     D
Si217  O434    1.641   .     S
Si217  O436    1.653   .     S
Si218  O435    1.645   .     S
Si218  O437    1.648   .     S
Si218  O438    1.631   .     S
Si218  O494    1.641   1_545 S
Si219  O435    1.651   .     D
Si219  O508    1.616   .     S
Si219  O509    1.612   .     S
O433   Si222   1.666   .     S
O434   Si224   1.641   .     S
O438   Si220   1.628   .     S
Si220  O430    1.620   1_545 S
Si220  O439    1.624   .     S
Si221  O441    1.613   .     S
Si222  O441    1.616   .     S
Si222  O442    1.623   .     S
Si222  O443    1.614   .     S
O439   H73     0.946   .     S
O440   Si256   1.610   .     S
O440   Si257   1.610   .     S
O442   Si262   1.620   .     S
O443   Si257   1.613   .     S
O444   Si257   1.627   .     S
O444   H74     0.946   .     S
Si223  O445    1.665   .     D
Si223  O446    1.641   .     S
Si223  O448    1.653   .     S
Si224  O447    1.645   .     S
Si224  O449    1.648   .     S
Si224  O450    1.631   .     S
Si225  O447    1.651   .     D
Si225  O520    1.616   .     S
Si225  O521    1.612   .     S
O445   Si228   1.666   .     S
O446   Si230   1.641   .     S
O450   Si226   1.628   .     S
Si226  O451    1.624   .     S
Si227  O453    1.613   .     S
Si228  O453    1.616   .     S
Si228  O454    1.623   .     S
Si228  O455    1.614   .     S
O451   H75     0.946   .     S
O452   Si262   1.610   .     S
O452   Si263   1.610   .     S
O454   Si268   1.620   .     S
O455   Si263   1.613   .     S
O456   Si263   1.627   .     S
O456   H76     0.946   .     S
Si229  O457    1.665   .     D
Si229  O458    1.641   .     S
Si229  O460    1.653   .     S
Si230  O459    1.645   .     S
Si230  O461    1.648   .     S
Si230  O462    1.631   .     S
Si231  O459    1.651   .     D
Si231  O532    1.616   .     S
Si231  O533    1.612   .     S
O457   Si234   1.666   .     S
O458   Si236   1.641   .     S
O462   Si232   1.628   .     S
Si232  O463    1.624   .     S
Si233  O465    1.613   .     S
Si234  O465    1.616   .     S
Si234  O466    1.623   .     S
Si234  O467    1.614   .     S
O463   H77     0.946   .     S
O464   Si268   1.610   .     S
O464   Si269   1.610   .     S
O466   Si274   1.620   .     S
O467   Si269   1.613   .     S
O468   Si269   1.627   .     S
O468   H78     0.946   .     S
Si235  O469    1.665   .     D
Si235  O470    1.641   .     S
Si235  O472    1.653   .     S
Si236  O471    1.645   .     S
Si236  O473    1.648   .     S
Si236  O474    1.631   .     S
Si237  O471    1.651   .     D
Si237  O544    1.616   .     S
Si237  O545    1.612   .     S
O469   Si240   1.666   .     S
O470   Si242   1.641   .     S
O474   Si238   1.628   .     S
Si238  O475    1.624   .     S
Si239  O477    1.613   .     S
Si240  O477    1.616   .     S
Si240  O478    1.623   .     S
Si240  O479    1.614   .     S
O475   H79     0.946   .     S
O476   Si274   1.610   .     S
O476   Si275   1.610   .     S
O478   Si280   1.620   .     S
O479   Si275   1.613   .     S
O480   Si275   1.627   .     S
O480   H80     0.946   .     S
Si241  O481    1.665   .     D
Si241  O482    1.641   .     S
Si241  O484    1.653   .     S
Si242  O483    1.645   .     S
Si242  O485    1.648   .     S
Si242  O486    1.631   .     S
Si243  O483    1.651   .     D
Si243  O556    1.616   .     S
Si243  O557    1.612   .     S
O481   Si246   1.666   .     S
O482   Si248   1.641   .     S
O486   Si244   1.628   .     S
Si244  O487    1.624   .     S
Si245  O489    1.613   .     S
Si246  O489    1.616   .     S
Si246  O490    1.623   .     S
Si246  O491    1.614   .     S
O487   H81     0.946   .     S
O488   Si280   1.610   .     S
O488   Si281   1.610   .     S
O490   Si286   1.620   .     S
O491   Si281   1.613   .     S
O492   Si281   1.627   .     S
O492   H82     0.946   .     S
Si247  O493    1.665   .     D
Si247  O494    1.641   .     S
Si247  O496    1.653   .     S
Si248  O495    1.645   .     S
Si248  O497    1.648   .     S
Si248  O498    1.631   .     S
Si249  O495    1.651   .     D
Si249  O568    1.616   .     S
Si249  O569    1.612   .     S
O493   Si252   1.666   .     S
O494   Si218   1.641   1_565 S
O498   Si250   1.628   .     S
Si250  O499    1.624   .     S
Si251  O501    1.613   .     S
Si252  O501    1.616   .     S
Si252  O502    1.623   .     S
Si252  O503    1.614   .     S
O499   H83     0.946   .     S
O500   Si286   1.610   .     S
O500   Si287   1.610   .     S
O502   Si256   1.620   1_565 S
O503   Si287   1.613   .     S
O504   Si287   1.627   .     S
O504   H84     0.946   .     S
Si253  O505    1.665   .     D
Si253  O506    1.640   .     S
Si253  O508    1.653   .     S
Si254  O507    1.648   .     S
Si254  O509    1.649   .     S
Si254  O510    1.633   .     S
Si254  O566    1.641   1_545 S
Si255  O4      1.616   1_655 D
Si255  O5      1.612   1_655 S
Si255  O507    1.653   .     S
O505   Si258   1.666   .     S
O506   Si260   1.641   .     S
O510   Si256   1.630   .     S
Si256  O502    1.620   1_545 S
Si256  O511    1.624   .     S
Si257  O513    1.612   .     S
Si258  O513    1.615   .     S
Si258  O514    1.622   .     S
Si258  O515    1.614   .     S
O511   H85     0.946   .     S
O512   Si5     1.611   1_655 S
O512   Si4     1.610   1_655 S
O514   Si10    1.619   1_655 S
O515   Si5     1.613   1_655 S
O516   Si5     1.627   1_655 S
O516   H86     0.946   .     S
Si259  O517    1.665   .     D
Si259  O518    1.640   .     S
Si259  O520    1.653   .     S
Si260  O519    1.648   .     S
Si260  O521    1.649   .     S
Si260  O522    1.633   .     S
Si261  O17     1.612   1_655 D
Si261  O16     1.616   1_655 S
Si261  O519    1.653   .     S
O517   Si264   1.666   .     S
O518   Si266   1.641   .     S
O522   Si262   1.630   .     S
Si262  O523    1.624   .     S
Si263  O525    1.612   .     S
Si264  O525    1.615   .     S
Si264  O526    1.622   .     S
Si264  O527    1.614   .     S
O523   H87     0.946   .     S
O524   Si10    1.610   1_655 S
O524   Si11    1.611   1_655 S
O526   Si16    1.619   1_655 S
O527   Si11    1.613   1_655 S
O528   Si11    1.627   1_655 S
O528   H88     0.946   .     S
Si265  O529    1.665   .     D
Si265  O530    1.640   .     S
Si265  O532    1.653   .     S
Si266  O531    1.648   .     S
Si266  O533    1.649   .     S
Si266  O534    1.633   .     S
Si267  O29     1.612   1_655 D
Si267  O28     1.616   1_655 S
Si267  O531    1.653   .     S
O529   Si270   1.667   .     S
O530   Si272   1.641   .     S
O534   Si268   1.630   .     S
Si268  O535    1.624   .     S
Si269  O537    1.612   .     S
Si270  O537    1.615   .     S
Si270  O538    1.622   .     S
Si270  O539    1.614   .     S
O535   H89     0.946   .     S
O536   Si17    1.611   1_655 S
O536   Si16    1.610   1_655 S
O538   Si22    1.619   1_655 S
O539   Si17    1.613   1_655 S
O540   Si17    1.627   1_655 S
O540   H90     0.946   .     S
Si271  O541    1.665   .     D
Si271  O542    1.640   .     S
Si271  O544    1.653   .     S
Si272  O543    1.648   .     S
Si272  O545    1.649   .     S
Si272  O546    1.633   .     S
Si273  O40     1.616   1_655 D
Si273  O41     1.612   1_655 S
Si273  O543    1.653   .     S
O541   Si276   1.666   .     S
O542   Si278   1.641   .     S
O546   Si274   1.630   .     S
Si274  O547    1.624   .     S
Si275  O549    1.612   .     S
Si276  O549    1.615   .     S
Si276  O550    1.622   .     S
Si276  O551    1.614   .     S
O547   H91     0.946   .     S
O548   Si23    1.611   1_655 S
O548   Si22    1.610   1_655 S
O550   Si28    1.619   1_655 S
O551   Si23    1.613   1_655 S
O552   Si23    1.627   1_655 S
O552   H92     0.946   .     S
Si277  O553    1.665   .     D
Si277  O554    1.640   .     S
Si277  O556    1.653   .     S
Si278  O555    1.648   .     S
Si278  O557    1.649   .     S
Si278  O558    1.633   .     S
Si279  O53     1.612   1_655 D
Si279  O52     1.616   1_655 S
Si279  O555    1.653   .     S
O553   Si282   1.666   .     S
O554   Si284   1.641   .     S
O558   Si280   1.630   .     S
Si280  O559    1.624   .     S
Si281  O561    1.612   .     S
Si282  O561    1.615   .     S
Si282  O562    1.622   .     S
Si282  O563    1.614   .     S
O559   H93     0.946   .     S
O560   Si28    1.610   1_655 S
O560   Si29    1.611   1_655 S
O562   Si34    1.619   1_655 S
O563   Si29    1.613   1_655 S
O564   Si29    1.627   1_655 S
O564   H94     0.946   .     S
Si283  O565    1.665   .     D
Si283  O566    1.640   .     S
Si283  O568    1.653   .     S
Si284  O567    1.648   .     S
Si284  O569    1.649   .     S
Si284  O570    1.633   .     S
Si285  O65     1.612   1_655 D
Si285  O64     1.616   1_655 S
Si285  O567    1.653   .     S
O565   Si288   1.667   .     S
O566   Si254   1.641   1_565 S
O570   Si286   1.630   .     S
Si286  O571    1.624   .     S
Si287  O573    1.612   .     S
Si288  O573    1.615   .     S
Si288  O574    1.622   .     S
Si288  O575    1.614   .     S
O571   H95     0.946   .     S
O572   Si34    1.610   1_655 S
O572   Si35    1.611   1_655 S
O574   Si4     1.619   1_665 S
O575   Si35    1.613   1_655 S
O576   Si35    1.627   1_655 S
O576   H96     0.946   .     S
