data_image0
_chemical_formula_structural       Br16C32N8ZnBr16C32N8ZnBr16C32N8ZnBr16C32N8ZnBr16C32N8ZnBr16C32N8ZnBr16C32N8ZnBr16C32N8ZnBr16C32N8ZnBr16C32N8ZnBr16C32N8ZnBr16C32N8ZnBr16C32N8ZnBr16C32N8ZnBr16C32N8ZnBr16C32N8ZnBr16C32N8ZnBr16C32N8ZnBr16C32N8ZnBr16C32N8ZnBr16C32N8ZnBr16C32N8ZnBr16C32N8ZnBr16C32N8ZnBr16C32N8ZnBr16C32N8ZnBr16C32N8ZnBr16C32N8ZnBr16C32N8ZnBr16C32N8ZnBr16C32N8ZnBr16C32N8ZnBr16C32N8ZnBr16C32N8ZnBr16C32N8ZnBr16C32N8ZnBr16C32N8ZnBr16C32N8ZnBr16C32N8ZnBr16C32N8ZnBr16C32N8ZnBr16C32N8ZnBr16C32N8ZnBr16C32N8ZnBr16C32N8ZnBr16C32N8ZnBr16C32N8ZnBr16C32N8ZnBr16C32N8ZnBr16C32N8ZnBr16C32N8ZnBr16C32N8ZnBr16C32N8ZnBr16C32N8ZnBr16C32N8ZnBr16C32N8ZnBr16C32N8ZnBr16C32N8ZnBr16C32N8ZnBr16C32N8ZnBr16C32N8ZnBr16C32N8ZnBr16C32N8ZnBr16C32N8Zn
_chemical_formula_sum              "Br1024 C2048 N512 Zn64"
_cell_length_a       100
_cell_length_b       100
_cell_length_c       100
_cell_angle_alpha    90
_cell_angle_beta     90
_cell_angle_gamma    90

_space_group_name_H-M_alt    "P 1"
_space_group_IT_number       1

loop_
  _space_group_symop_operation_xyz
  'x, y, z'

loop_
  _atom_site_type_symbol
  _atom_site_label
  _atom_site_symmetry_multiplicity
  _atom_site_fract_x
  _atom_site_fract_y
  _atom_site_fract_z
  _atom_site_occupancy
  Br  Br1       1.0  0.55665  0.29977  0.64962  1.0000
  Br  Br2       1.0  0.56746  0.32876  0.63455  1.0000
  Br  Br3       1.0  0.54475  0.35363  0.62698  1.0000
  Br  Br4       1.0  0.51208  0.35057  0.63557  1.0000
  Br  Br5       1.0  0.48023  0.35007  0.63665  1.0000
  Br  Br6       1.0  0.44765  0.36035  0.63178  1.0000
  Br  Br7       1.0  0.42170  0.33849  0.63837  1.0000
  Br  Br8       1.0  0.42792  0.30742  0.65137  1.0000
  Br  Br9       1.0  0.55424  0.27268  0.66738  1.0000
  Br  Br10      1.0  0.42551  0.28034  0.66913  1.0000
  Br  Br11      1.0  0.50193  0.23004  0.68210  1.0000
  Br  Br12      1.0  0.56046  0.24161  0.68038  1.0000
  Br  Br13      1.0  0.47008  0.22953  0.68318  1.0000
  Br  Br14      1.0  0.41470  0.25134  0.68421  1.0000
  Br  Br15      1.0  0.53451  0.21976  0.68697  1.0000
  Br  Br16      1.0  0.43741  0.22647  0.69177  1.0000
  C   C1        1.0  0.50586  0.31731  0.64986  1.0000
  C   C2        1.0  0.48098  0.31744  0.64916  1.0000
  C   C3        1.0  0.46354  0.30235  0.65516  1.0000
  C   C4        1.0  0.52121  0.30111  0.65537  1.0000
  C   C5        1.0  0.51949  0.32289  0.64534  1.0000
  C   C6        1.0  0.52940  0.31245  0.64884  1.0000
  C   C7        1.0  0.54380  0.31405  0.64595  1.0000
  C   C8        1.0  0.54838  0.32649  0.63912  1.0000
  C   C9        1.0  0.53848  0.33702  0.63568  1.0000
  C   C10       1.0  0.52393  0.33532  0.63878  1.0000
  C   C11       1.0  0.46781  0.32484  0.64702  1.0000
  C   C12       1.0  0.46554  0.33818  0.64142  1.0000
  C   C13       1.0  0.45149  0.34248  0.63927  1.0000
  C   C14       1.0  0.44033  0.33302  0.64220  1.0000
  C   C15       1.0  0.44290  0.31967  0.64846  1.0000
  C   C16       1.0  0.45689  0.31552  0.65074  1.0000
  C   C17       1.0  0.51862  0.27775  0.66359  1.0000
  C   C18       1.0  0.46095  0.27899  0.66338  1.0000
  C   C19       1.0  0.52527  0.26458  0.66801  1.0000
  C   C20       1.0  0.47629  0.26279  0.66889  1.0000
  C   C21       1.0  0.50118  0.26267  0.66960  1.0000
  C   C22       1.0  0.45276  0.26765  0.66992  1.0000
  C   C23       1.0  0.51435  0.25526  0.67173  1.0000
  C   C24       1.0  0.53926  0.26043  0.67029  1.0000
  C   C25       1.0  0.46267  0.25721  0.67342  1.0000
  C   C26       1.0  0.43836  0.26606  0.67280  1.0000
  C   C27       1.0  0.51661  0.24193  0.67733  1.0000
  C   C28       1.0  0.54183  0.24708  0.67655  1.0000
  C   C29       1.0  0.45823  0.24478  0.67997  1.0000
  C   C30       1.0  0.43378  0.25361  0.67964  1.0000
  C   C31       1.0  0.53067  0.23763  0.67948  1.0000
  C   C32       1.0  0.44368  0.24308  0.68307  1.0000
  N   N1        1.0  0.50708  0.30452  0.65641  1.0000
  N   N2        1.0  0.49359  0.32288  0.64673  1.0000
  N   N3        1.0  0.47824  0.30385  0.65373  1.0000
  N   N4        1.0  0.52648  0.28864  0.65884  1.0000
  N   N5        1.0  0.45568  0.29146  0.65991  1.0000
  N   N6        1.0  0.47508  0.27558  0.66234  1.0000
  N   N7        1.0  0.50392  0.27625  0.66502  1.0000
  N   N8        1.0  0.48858  0.25723  0.67202  1.0000
  Zn  Zn1       1.0  0.49108  0.29005  0.65938  1.0000
  Br  Br17      1.0  0.85435  0.32638  0.24175  1.0000
  Br  Br18      1.0  0.83453  0.29902  0.23513  1.0000
  Br  Br19      1.0  0.80099  0.29980  0.24321  1.0000
  Br  Br20      1.0  0.78686  0.32776  0.25623  1.0000
  Br  Br21      1.0  0.77052  0.34919  0.27325  1.0000
  Br  Br22      1.0  0.74428  0.36327  0.29069  1.0000
  Br  Br23      1.0  0.74948  0.39210  0.30900  1.0000
  Br  Br24      1.0  0.77992  0.40781  0.30856  1.0000
  Br  Br25      1.0  0.87716  0.34948  0.24100  1.0000
  Br  Br26      1.0  0.80273  0.43092  0.30782  1.0000
  Br  Br27      1.0  0.88655  0.40810  0.27632  1.0000
  Br  Br28      1.0  0.90759  0.36519  0.24056  1.0000
  Br  Br29      1.0  0.87021  0.42953  0.29334  1.0000
  Br  Br30      1.0  0.82255  0.45827  0.31444  1.0000
  Br  Br31      1.0  0.91280  0.39403  0.25888  1.0000
  Br  Br32      1.0  0.85609  0.45749  0.30636  1.0000
  C   C33       1.0  0.81266  0.35312  0.26260  1.0000
  C   C34       1.0  0.79935  0.36862  0.27682  1.0000
  C   C35       1.0  0.80329  0.38921  0.28814  1.0000
  C   C36       1.0  0.83484  0.35265  0.25661  1.0000
  C   C37       1.0  0.81485  0.33931  0.25612  1.0000
  C   C38       1.0  0.82915  0.33896  0.25229  1.0000
  C   C39       1.0  0.83523  0.32717  0.24580  1.0000
  C   C40       1.0  0.82667  0.31521  0.24325  1.0000
  C   C41       1.0  0.81230  0.31557  0.24700  1.0000
  C   C42       1.0  0.80624  0.32765  0.25347  1.0000
  C   C43       1.0  0.78599  0.37306  0.28268  1.0000
  C   C44       1.0  0.77313  0.36605  0.28267  1.0000
  C   C45       1.0  0.76192  0.37213  0.29028  1.0000
  C   C46       1.0  0.76421  0.38462  0.29811  1.0000
  C   C47       1.0  0.77728  0.39189  0.29749  1.0000
  C   C48       1.0  0.78834  0.38589  0.28975  1.0000
  C   C49       1.0  0.85378  0.36808  0.26143  1.0000
  C   C50       1.0  0.82223  0.40464  0.29296  1.0000
  C   C51       1.0  0.86874  0.37141  0.25981  1.0000
  C   C52       1.0  0.84441  0.40418  0.28697  1.0000
  C   C53       1.0  0.85772  0.38867  0.27274  1.0000
  C   C54       1.0  0.82793  0.41833  0.29728  1.0000
  C   C55       1.0  0.87109  0.38423  0.26688  1.0000
  C   C56       1.0  0.87980  0.36540  0.25208  1.0000
  C   C57       1.0  0.84223  0.41799  0.29344  1.0000
  C   C58       1.0  0.82185  0.43013  0.30377  1.0000
  C   C59       1.0  0.88394  0.39125  0.26690  1.0000
  C   C60       1.0  0.89286  0.37267  0.25145  1.0000
  C   C61       1.0  0.85083  0.42965  0.29610  1.0000
  C   C62       1.0  0.83041  0.44208  0.30632  1.0000
  C   C63       1.0  0.89515  0.38516  0.25929  1.0000
  C   C64       1.0  0.84478  0.44172  0.30257  1.0000
  N   N9        1.0  0.82456  0.36126  0.26229  1.0000
  N   N10       1.0  0.80125  0.35695  0.26944  1.0000
  N   N11       1.0  0.80970  0.37825  0.28046  1.0000
  N   N12       1.0  0.84841  0.35598  0.25617  1.0000
  N   N13       1.0  0.80866  0.40132  0.29339  1.0000
  N   N14       1.0  0.83252  0.39603  0.28728  1.0000
  N   N15       1.0  0.84737  0.37904  0.26911  1.0000
  N   N16       1.0  0.85582  0.40034  0.28013  1.0000
  Zn  Zn2       1.0  0.82854  0.37865  0.27478  1.0000
  Br  Br33      1.0  0.21388  0.69376  0.09861  1.0000
  Br  Br34      1.0  0.18164  0.68316  0.09284  1.0000
  Br  Br35      1.0  0.17604  0.65489  0.07387  1.0000
  Br  Br36      1.0  0.20194  0.63645  0.06204  1.0000
  Br  Br37      1.0  0.22234  0.61928  0.04458  1.0000
  Br  Br38      1.0  0.23352  0.59574  0.02195  1.0000
  Br  Br39      1.0  0.26666  0.59590  0.01214  1.0000
  Br  Br40      1.0  0.28886  0.61800  0.02600  1.0000
  Br  Br41      1.0  0.24089  0.70645  0.11143  1.0000
  Br  Br42      1.0  0.31587  0.63068  0.03881  1.0000
  Br  Br43      1.0  0.30741  0.70516  0.09285  1.0000
  Br  Br44      1.0  0.26309  0.72854  0.12528  1.0000
  Br  Br45      1.0  0.32782  0.68800  0.07539  1.0000
  Br  Br46      1.0  0.34811  0.64128  0.04458  1.0000
  Br  Br47      1.0  0.29623  0.72870  0.11548  1.0000
  Br  Br48      1.0  0.35372  0.66955  0.06356  1.0000
  C   C65       1.0  0.23379  0.65303  0.06976  1.0000
  C   C66       1.0  0.24870  0.63980  0.05486  1.0000
  C   C67       1.0  0.27193  0.63962  0.04955  1.0000
  C   C68       1.0  0.23735  0.67154  0.08291  1.0000
  C   C69       1.0  0.21976  0.65781  0.07397  1.0000
  C   C70       1.0  0.22203  0.66976  0.08242  1.0000
  C   C71       1.0  0.21085  0.67738  0.08837  1.0000
  C   C72       1.0  0.19689  0.67293  0.08557  1.0000
  C   C73       1.0  0.19459  0.66089  0.07718  1.0000
  C   C74       1.0  0.20602  0.65320  0.07131  1.0000
  C   C75       1.0  0.25103  0.62789  0.04561  1.0000
  C   C76       1.0  0.24124  0.61863  0.03988  1.0000
  C   C77       1.0  0.24613  0.60859  0.03008  1.0000
  C   C78       1.0  0.26046  0.60866  0.02594  1.0000
  C   C79       1.0  0.27036  0.61786  0.03238  1.0000
  C   C80       1.0  0.26547  0.62769  0.04226  1.0000
  C   C81       1.0  0.25783  0.68482  0.08787  1.0000
  C   C82       1.0  0.29240  0.65291  0.05451  1.0000
  C   C83       1.0  0.26428  0.69675  0.09517  1.0000
  C   C84       1.0  0.29597  0.67141  0.06766  1.0000
  C   C85       1.0  0.28105  0.68464  0.08257  1.0000
  C   C86       1.0  0.30773  0.65468  0.05501  1.0000
  C   C87       1.0  0.27873  0.69656  0.09181  1.0000
  C   C88       1.0  0.25939  0.70659  0.10504  1.0000
  C   C89       1.0  0.31000  0.66663  0.06345  1.0000
  C   C90       1.0  0.31891  0.64706  0.04905  1.0000
  C   C91       1.0  0.28851  0.70582  0.09754  1.0000
  C   C92       1.0  0.26929  0.71578  0.11149  1.0000
  C   C93       1.0  0.32374  0.67125  0.06612  1.0000
  C   C94       1.0  0.33287  0.65151  0.05186  1.0000
  C   C95       1.0  0.28362  0.71585  0.10735  1.0000
  C   C96       1.0  0.33517  0.66356  0.06024  1.0000
  N   N17       1.0  0.24428  0.66096  0.07567  1.0000
  N   N18       1.0  0.23632  0.64336  0.06019  1.0000
  N   N19       1.0  0.26128  0.64693  0.05686  1.0000
  N   N20       1.0  0.24378  0.68254  0.08864  1.0000
  N   N21       1.0  0.28597  0.64189  0.04878  1.0000
  N   N22       1.0  0.28547  0.66348  0.06176  1.0000
  N   N23       1.0  0.26848  0.67751  0.08056  1.0000
  N   N24       1.0  0.29343  0.68109  0.07723  1.0000
  Zn  Zn3       1.0  0.26488  0.66222  0.06871  1.0000
  Br  Br49      1.0  0.48261  0.64860  0.76458  1.0000
  Br  Br50      1.0  0.48011  0.62272  0.78714  1.0000
  Br  Br51      1.0  0.46072  0.59520  0.77958  1.0000
  Br  Br52      1.0  0.44523  0.59255  0.74952  1.0000
  Br  Br53      1.0  0.42483  0.58802  0.72544  1.0000
  Br  Br54      1.0  0.40009  0.57316  0.70653  1.0000
  Br  Br55      1.0  0.38657  0.59021  0.67968  1.0000
  Br  Br56      1.0  0.39873  0.62092  0.67060  1.0000
  Br  Br57      1.0  0.49278  0.67372  0.74668  1.0000
  Br  Br58      1.0  0.40890  0.64603  0.65269  1.0000
  Br  Br59      1.0  0.46667  0.70661  0.69183  1.0000
  Br  Br60      1.0  0.50493  0.70442  0.73760  1.0000
  Br  Br61      1.0  0.44628  0.70208  0.66776  1.0000
  Br  Br62      1.0  0.41139  0.67191  0.63013  1.0000
  Br  Br63      1.0  0.49142  0.72147  0.71075  1.0000
  Br  Br64      1.0  0.43079  0.69943  0.63770  1.0000
  C   C97       1.0  0.44996  0.62340  0.73014  1.0000
  C   C98       1.0  0.43289  0.61945  0.71245  1.0000
  C   C99       1.0  0.42497  0.63120  0.69330  1.0000
  C   C100      1.0  0.46339  0.64137  0.73509  1.0000
  C   C101      1.0  0.45595  0.62032  0.74400  1.0000
  C   C102      1.0  0.46458  0.63191  0.74723  1.0000
  C   C103      1.0  0.47209  0.63278  0.75993  1.0000
  C   C104      1.0  0.47071  0.62169  0.76981  1.0000
  C   C105      1.0  0.46214  0.61000  0.76655  1.0000
  C   C106      1.0  0.45468  0.60921  0.75359  1.0000
  C   C107      1.0  0.42295  0.61025  0.70543  1.0000
  C   C108      1.0  0.41798  0.59713  0.70964  1.0000
  C   C109      1.0  0.40726  0.59086  0.70149  1.0000
  C   C110      1.0  0.40152  0.59824  0.68987  1.0000
  C   C111      1.0  0.40717  0.61137  0.68545  1.0000
  C   C112      1.0  0.41795  0.61748  0.69349  1.0000
  C   C113      1.0  0.46654  0.66344  0.72398  1.0000
  C   C114      1.0  0.42811  0.65326  0.68219  1.0000
  C   C115      1.0  0.47355  0.67715  0.72379  1.0000
  C   C116      1.0  0.44155  0.67123  0.68714  1.0000
  C   C117      1.0  0.45861  0.67518  0.70483  1.0000
  C   C118      1.0  0.42693  0.66272  0.67005  1.0000
  C   C119      1.0  0.46856  0.68438  0.71184  1.0000
  C   C120      1.0  0.48433  0.68326  0.73183  1.0000
  C   C121      1.0  0.43556  0.67431  0.67328  1.0000
  C   C122      1.0  0.41941  0.66185  0.65735  1.0000
  C   C123      1.0  0.47353  0.69750  0.70763  1.0000
  C   C124      1.0  0.48999  0.69639  0.72740  1.0000
  C   C125      1.0  0.43683  0.68543  0.66369  1.0000
  C   C126      1.0  0.42079  0.67294  0.64747  1.0000
  C   C127      1.0  0.48424  0.70377  0.71578  1.0000
  C   C128      1.0  0.42937  0.68463  0.65073  1.0000
  N   N25       1.0  0.45496  0.63575  0.72462  1.0000
  N   N26       1.0  0.43976  0.61621  0.72414  1.0000
  N   N27       1.0  0.43375  0.63210  0.70522  1.0000
  N   N28       1.0  0.46881  0.65425  0.73463  1.0000
  N   N29       1.0  0.42269  0.64038  0.68265  1.0000
  N   N30       1.0  0.43655  0.65889  0.69265  1.0000
  N   N31       1.0  0.45776  0.66253  0.71205  1.0000
  N   N32       1.0  0.45175  0.67842  0.69314  1.0000
  Zn  Zn4       1.0  0.44575  0.64732  0.70864  1.0000
  Br  Br65      1.0  0.09487  0.83532  0.19254  1.0000
  Br  Br66      1.0  0.09840  0.85120  0.16220  1.0000
  Br  Br67      1.0  0.12017  0.87781  0.15922  1.0000
  Br  Br68      1.0  0.13936  0.88763  0.18541  1.0000
  Br  Br69      1.0  0.15511  0.90367  0.20801  1.0000
  Br  Br70      1.0  0.17425  0.92843  0.22255  1.0000
  Br  Br71      1.0  0.17727  0.92966  0.25695  1.0000
  Br  Br72      1.0  0.16295  0.90555  0.27661  1.0000
  Br  Br73      1.0  0.09014  0.81354  0.21616  1.0000
  Br  Br74      1.0  0.15822  0.88377  0.30023  1.0000
  Br  Br75      1.0  0.09798  0.81542  0.28476  1.0000
  Br  Br76      1.0  0.07582  0.78942  0.23582  1.0000
  Br  Br77      1.0  0.11373  0.83146  0.30736  1.0000
  Br  Br78      1.0  0.15470  0.86788  0.33056  1.0000
  Br  Br79      1.0  0.07884  0.79066  0.27022  1.0000
  Br  Br80      1.0  0.13292  0.84128  0.33355  1.0000
  C   C129      1.0  0.13048  0.86841  0.21543  1.0000
  C   C130      1.0  0.14216  0.88232  0.23246  1.0000
  C   C131      1.0  0.14491  0.88180  0.25612  1.0000
  C   C132      1.0  0.11639  0.85033  0.21709  1.0000
  C   C133      1.0  0.12458  0.86653  0.20132  1.0000
  C   C134      1.0  0.11546  0.85492  0.20238  1.0000
  C   C135      1.0  0.10771  0.84998  0.19080  1.0000
  C   C136      1.0  0.10902  0.85710  0.17776  1.0000
  C   C137      1.0  0.11824  0.86870  0.17666  1.0000
  C   C138      1.0  0.12612  0.87352  0.18844  1.0000
  C   C139      1.0  0.15181  0.89358  0.23603  1.0000
  C   C140      1.0  0.15775  0.90373  0.22731  1.0000
  C   C141      1.0  0.16590  0.91441  0.23367  1.0000
  C   C142      1.0  0.16722  0.91485  0.24852  1.0000
  C   C143      1.0  0.16153  0.90402  0.25715  1.0000
  C   C144      1.0  0.15360  0.89333  0.25075  1.0000
  C   C145      1.0  0.10818  0.83729  0.23664  1.0000
  C   C146      1.0  0.13670  0.86875  0.27568  1.0000
  C   C147      1.0  0.09950  0.82575  0.24201  1.0000
  C   C148      1.0  0.12261  0.85068  0.27733  1.0000
  C   C149      1.0  0.11093  0.83677  0.26030  1.0000
  C   C150      1.0  0.13764  0.86417  0.29039  1.0000
  C   C151      1.0  0.10128  0.82550  0.25674  1.0000
  C   C152      1.0  0.09156  0.81506  0.23562  1.0000
  C   C153      1.0  0.12851  0.85255  0.29144  1.0000
  C   C154      1.0  0.14539  0.86910  0.30196  1.0000
  C   C155      1.0  0.09534  0.81535  0.26546  1.0000
  C   C156      1.0  0.08587  0.80424  0.24424  1.0000
  C   C157      1.0  0.12697  0.84556  0.30432  1.0000
  C   C158      1.0  0.14407  0.86198  0.31500  1.0000
  C   C159      1.0  0.08720  0.80468  0.25910  1.0000
  C   C160      1.0  0.13485  0.85038  0.31611  1.0000
  N   N33       1.0  0.12598  0.85828  0.22465  1.0000
  N   N34       1.0  0.13795  0.87932  0.21951  1.0000
  N   N35       1.0  0.13786  0.87555  0.24466  1.0000
  N   N36       1.0  0.10823  0.84052  0.22277  1.0000
  N   N37       1.0  0.14487  0.87857  0.27000  1.0000
  N   N38       1.0  0.12711  0.86080  0.26811  1.0000
  N   N39       1.0  0.11524  0.84353  0.24811  1.0000
  N   N40       1.0  0.11514  0.83976  0.27325  1.0000
  Zn  Zn5       1.0  0.12655  0.85954  0.24638  1.0000
  Br  Br81      1.0  0.18859  0.64026  0.70420  1.0000
  Br  Br82      1.0  0.17449  0.62507  0.73168  1.0000
  Br  Br83      1.0  0.14236  0.61260  0.72976  1.0000
  Br  Br84      1.0  0.12496  0.61373  0.70067  1.0000
  Br  Br85      1.0  0.10310  0.61723  0.67773  1.0000
  Br  Br86      1.0  0.07244  0.61586  0.66195  1.0000
  Br  Br87      1.0  0.06800  0.63227  0.63186  1.0000
  Br  Br88      1.0  0.09417  0.64833  0.61671  1.0000
  Br  Br89      1.0  0.20909  0.65134  0.68158  1.0000
  Br  Br90      1.0  0.11467  0.65941  0.59408  1.0000
  Br  Br91      1.0  0.20016  0.68244  0.62055  1.0000
  Br  Br92      1.0  0.23526  0.66741  0.66642  1.0000
  Br  Br93      1.0  0.17830  0.68595  0.59761  1.0000
  Br  Br94      1.0  0.12878  0.67461  0.56660  1.0000
  Br  Br95      1.0  0.23082  0.68382  0.63633  1.0000
  Br  Br96      1.0  0.16090  0.68708  0.56852  1.0000
  C   C161      1.0  0.14402  0.63222  0.67529  1.0000
  C   C162      1.0  0.12590  0.63548  0.65853  1.0000
  C   C163      1.0  0.12391  0.64587  0.63718  1.0000
  C   C164      1.0  0.16563  0.63993  0.67656  1.0000
  C   C165      1.0  0.14870  0.62891  0.68959  1.0000
  C   C166      1.0  0.16261  0.63391  0.69045  1.0000
  C   C167      1.0  0.17062  0.63268  0.70281  1.0000
  C   C168      1.0  0.16434  0.62638  0.71479  1.0000
  C   C169      1.0  0.15042  0.62127  0.71392  1.0000
  C   C170      1.0  0.14246  0.62248  0.70129  1.0000
  C   C171      1.0  0.11184  0.63245  0.65344  1.0000
  C   C172      1.0  0.10088  0.62552  0.66024  1.0000
  C   C173      1.0  0.08769  0.62506  0.65341  1.0000
  C   C174      1.0  0.08585  0.63211  0.64039  1.0000
  C   C175      1.0  0.09737  0.63862  0.63339  1.0000
  C   C176      1.0  0.11050  0.63888  0.64015  1.0000
  C   C177      1.0  0.17936  0.65380  0.66110  1.0000
  C   C178      1.0  0.13763  0.65975  0.62172  1.0000
  C   C179      1.0  0.19276  0.66079  0.65813  1.0000
  C   C180      1.0  0.15924  0.66745  0.62299  1.0000
  C   C181      1.0  0.17736  0.66420  0.63975  1.0000
  C   C182      1.0  0.14065  0.66577  0.60783  1.0000
  C   C183      1.0  0.19142  0.66723  0.64484  1.0000
  C   C184      1.0  0.20589  0.66106  0.66489  1.0000
  C   C185      1.0  0.15457  0.67077  0.60869  1.0000
  C   C186      1.0  0.13265  0.66700  0.59547  1.0000
  C   C187      1.0  0.20238  0.67416  0.63804  1.0000
  C   C188      1.0  0.21741  0.66757  0.65789  1.0000
  C   C189      1.0  0.16080  0.67720  0.59699  1.0000
  C   C190      1.0  0.13892  0.67330  0.58349  1.0000
  C   C191      1.0  0.21557  0.67461  0.64487  1.0000
  C   C192      1.0  0.15284  0.67841  0.58436  1.0000
  N   N41       1.0  0.15444  0.63828  0.66738  1.0000
  N   N42       1.0  0.13098  0.63114  0.67077  1.0000
  N   N43       1.0  0.13290  0.64382  0.64880  1.0000
  N   N44       1.0  0.17722  0.64710  0.67349  1.0000
  N   N45       1.0  0.12604  0.65257  0.62479  1.0000
  N   N46       1.0  0.14882  0.66140  0.63091  1.0000
  N   N47       1.0  0.17036  0.65586  0.64948  1.0000
  N   N48       1.0  0.17228  0.66854  0.62752  1.0000
  Zn  Zn6       1.0  0.15163  0.64984  0.64914  1.0000
  Br  Br97      1.0  0.40043  0.61831  0.81860  1.0000
  Br  Br98      1.0  0.42089  0.64400  0.80831  1.0000
  Br  Br99      1.0  0.40719  0.67171  0.79295  1.0000
  Br  Br100     1.0  0.37362  0.67471  0.78919  1.0000
  Br  Br101     1.0  0.34391  0.67957  0.77871  1.0000
  Br  Br102     1.0  0.31757  0.69475  0.76237  1.0000
  Br  Br103     1.0  0.28750  0.67801  0.75925  1.0000
  Br  Br104     1.0  0.28303  0.64731  0.77376  1.0000
  Br  Br105     1.0  0.38707  0.59328  0.83441  1.0000
  Br  Br106     1.0  0.26967  0.62228  0.78957  1.0000
  Br  Br107     1.0  0.32619  0.56102  0.82946  1.0000
  Br  Br108     1.0  0.38260  0.56258  0.84892  1.0000
  Br  Br109     1.0  0.29648  0.56588  0.81899  1.0000
  Br  Br110     1.0  0.24921  0.59658  0.79986  1.0000
  Br  Br111     1.0  0.35253  0.54584  0.84581  1.0000
  Br  Br112     1.0  0.26290  0.56888  0.81522  1.0000
  C   C193      1.0  0.35688  0.64400  0.80042  1.0000
  C   C194      1.0  0.33432  0.64820  0.79079  1.0000
  C   C195      1.0  0.31348  0.63667  0.79017  1.0000
  C   C196      1.0  0.36610  0.62590  0.81117  1.0000
  C   C197      1.0  0.37199  0.64693  0.80110  1.0000
  C   C198      1.0  0.37797  0.63525  0.80798  1.0000
  C   C199      1.0  0.39250  0.63423  0.81048  1.0000
  C   C200      1.0  0.40136  0.64524  0.80570  1.0000
  C   C201      1.0  0.39537  0.65701  0.79888  1.0000
  C   C202      1.0  0.38062  0.65796  0.79652  1.0000
  C   C203      1.0  0.32431  0.65752  0.78401  1.0000
  C   C204      1.0  0.32661  0.67063  0.77791  1.0000
  C   C205      1.0  0.31524  0.67705  0.77081  1.0000
  C   C206      1.0  0.30226  0.66980  0.76956  1.0000
  C   C207      1.0  0.30001  0.65667  0.77639  1.0000
  C   C208      1.0  0.31130  0.65043  0.78358  1.0000
  C   C209      1.0  0.35662  0.60392  0.81800  1.0000
  C   C210      1.0  0.30400  0.61468  0.79700  1.0000
  C   C211      1.0  0.35880  0.59016  0.82459  1.0000
  C   C212      1.0  0.31322  0.59659  0.80775  1.0000
  C   C213      1.0  0.33579  0.59238  0.81738  1.0000
  C   C214      1.0  0.29213  0.60534  0.80019  1.0000
  C   C215      1.0  0.34579  0.58306  0.82416  1.0000
  C   C216      1.0  0.37009  0.58392  0.83178  1.0000
  C   C217      1.0  0.29811  0.59366  0.80708  1.0000
  C   C218      1.0  0.27760  0.60636  0.79770  1.0000
  C   C219      1.0  0.34349  0.56995  0.83026  1.0000
  C   C220      1.0  0.36784  0.57079  0.83861  1.0000
  C   C221      1.0  0.28948  0.58262  0.81165  1.0000
  C   C222      1.0  0.26874  0.59534  0.80247  1.0000
  C   C223      1.0  0.35486  0.56354  0.83736  1.0000
  C   C224      1.0  0.27473  0.58358  0.80929  1.0000
  N   N49       1.0  0.35338  0.63167  0.80703  1.0000
  N   N50       1.0  0.34772  0.65130  0.79305  1.0000
  N   N51       1.0  0.32774  0.63561  0.79413  1.0000
  N   N52       1.0  0.36747  0.61300  0.81636  1.0000
  N   N53       1.0  0.30263  0.62759  0.79181  1.0000
  N   N54       1.0  0.31672  0.60892  0.80115  1.0000
  N   N55       1.0  0.34236  0.60498  0.81405  1.0000
  N   N56       1.0  0.32238  0.58929  0.81512  1.0000
  Zn  Zn7       1.0  0.33505  0.62029  0.80409  1.0000
  Br  Br113     1.0  0.18603  0.74315  0.50537  1.0000
  Br  Br114     1.0  0.16878  0.75429  0.53299  1.0000
  Br  Br115     1.0  0.17104  0.73695  0.56275  1.0000
  Br  Br116     1.0  0.19127  0.70987  0.56562  1.0000
  Br  Br117     1.0  0.20431  0.68142  0.57166  1.0000
  Br  Br118     1.0  0.21241  0.65271  0.58901  1.0000
  Br  Br119     1.0  0.22774  0.62653  0.57245  1.0000
  Br  Br120     1.0  0.23657  0.62950  0.53949  1.0000
  Br  Br121     1.0  0.20264  0.74100  0.47754  1.0000
  Br  Br122     1.0  0.25318  0.62735  0.51167  1.0000
  Br  Br123     1.0  0.23490  0.68908  0.44537  1.0000
  Br  Br124     1.0  0.21148  0.74397  0.44458  1.0000
  Br  Br125     1.0  0.24794  0.66063  0.45141  1.0000
  Br  Br126     1.0  0.27043  0.61622  0.48404  1.0000
  Br  Br127     1.0  0.22680  0.71780  0.42803  1.0000
  Br  Br128     1.0  0.26817  0.63355  0.45429  1.0000
  C   C225      1.0  0.20594  0.70158  0.53299  1.0000
  C   C226      1.0  0.21471  0.67892  0.53839  1.0000
  C   C227      1.0  0.22646  0.66180  0.52670  1.0000
  C   C228      1.0  0.20480  0.71358  0.51343  1.0000
  C   C229      1.0  0.19675  0.71356  0.53608  1.0000
  C   C230      1.0  0.19596  0.72128  0.52347  1.0000
  C   C231      1.0  0.18788  0.73361  0.52234  1.0000
  C   C232      1.0  0.18016  0.73820  0.53425  1.0000
  C   C233      1.0  0.18102  0.73052  0.54694  1.0000
  C   C234      1.0  0.18934  0.71812  0.54797  1.0000
  C   C235      1.0  0.21792  0.66802  0.54857  1.0000
  C   C236      1.0  0.21395  0.66710  0.56264  1.0000
  C   C237      1.0  0.21740  0.65466  0.57000  1.0000
  C   C238      1.0  0.22408  0.64342  0.56281  1.0000
  C   C239      1.0  0.22854  0.64485  0.54859  1.0000
  C   C240      1.0  0.22524  0.65731  0.54138  1.0000
  C   C241      1.0  0.21275  0.70870  0.49034  1.0000
  C   C242      1.0  0.23441  0.65692  0.50361  1.0000
  C   C243      1.0  0.21397  0.71319  0.47565  1.0000
  C   C244      1.0  0.23327  0.66892  0.48405  1.0000
  C   C245      1.0  0.22450  0.69159  0.47865  1.0000
  C   C246      1.0  0.24325  0.64922  0.49356  1.0000
  C   C247      1.0  0.22129  0.70249  0.46846  1.0000
  C   C248      1.0  0.21068  0.72565  0.46844  1.0000
  C   C249      1.0  0.24246  0.65695  0.48095  1.0000
  C   C250      1.0  0.25133  0.63690  0.49470  1.0000
  C   C251      1.0  0.22526  0.70341  0.45440  1.0000
  C   C252      1.0  0.21513  0.72708  0.45422  1.0000
  C   C253      1.0  0.24987  0.65239  0.46906  1.0000
  C   C254      1.0  0.25905  0.63230  0.48279  1.0000
  C   C255      1.0  0.22181  0.71584  0.44704  1.0000
  C   C256      1.0  0.25819  0.63998  0.47010  1.0000
  N   N57       1.0  0.21120  0.70202  0.51957  1.0000
  N   N58       1.0  0.20784  0.69069  0.54132  1.0000
  N   N59       1.0  0.21961  0.67489  0.52524  1.0000
  N   N60       1.0  0.20568  0.71664  0.49982  1.0000
  N   N61       1.0  0.23353  0.65386  0.51722  1.0000
  N   N62       1.0  0.22801  0.66848  0.49747  1.0000
  N   N63       1.0  0.21960  0.69562  0.49179  1.0000
  N   N64       1.0  0.23137  0.67982  0.47572  1.0000
  Zn  Zn8       1.0  0.21961  0.68525  0.50852  1.0000
  Br  Br129     1.0  0.21399  0.70281  0.22617  1.0000
  Br  Br130     1.0  0.23500  0.69680  0.25277  1.0000
  Br  Br131     1.0  0.23821  0.66475  0.26516  1.0000
  Br  Br132     1.0  0.22210  0.63873  0.25053  1.0000
  Br  Br133     1.0  0.20523  0.61253  0.24382  1.0000
  Br  Br134     1.0  0.19350  0.58018  0.24651  1.0000
  Br  Br135     1.0  0.16623  0.57031  0.22771  1.0000
  Br  Br136     1.0  0.15190  0.59174  0.20516  1.0000
  Br  Br137     1.0  0.19997  0.71453  0.19933  1.0000
  Br  Br138     1.0  0.13787  0.60345  0.17831  1.0000
  Br  Br139     1.0  0.14663  0.69373  0.16066  1.0000
  Br  Br140     1.0  0.18563  0.73595  0.17678  1.0000
  Br  Br141     1.0  0.12976  0.66754  0.15396  1.0000
  Br  Br142     1.0  0.11686  0.60947  0.15172  1.0000
  Br  Br143     1.0  0.15836  0.72608  0.15798  1.0000
  Br  Br144     1.0  0.11365  0.64152  0.13933  1.0000
  C   C257      1.0  0.20006  0.65097  0.22382  1.0000
  C   C258      1.0  0.18662  0.63033  0.22019  1.0000
  C   C259      1.0  0.16865  0.62380  0.20597  1.0000
  C   C260      1.0  0.19850  0.67226  0.21532  1.0000
  C   C261      1.0  0.20958  0.65950  0.23242  1.0000
  C   C262      1.0  0.20856  0.67324  0.22698  1.0000
  C   C263      1.0  0.21621  0.68451  0.23271  1.0000
  C   C264      1.0  0.22505  0.68191  0.24444  1.0000
  C   C265      1.0  0.22616  0.66812  0.24985  1.0000
  C   C266      1.0  0.21844  0.65677  0.24387  1.0000
  C   C267      1.0  0.18422  0.61547  0.22266  1.0000
  C   C268      1.0  0.19058  0.60660  0.23243  1.0000
  C   C269      1.0  0.18540  0.59273  0.23358  1.0000
  C   C270      1.0  0.17367  0.58850  0.22538  1.0000
  C   C271      1.0  0.16773  0.59758  0.21507  1.0000
  C   C272      1.0  0.17304  0.61130  0.21384  1.0000
  C   C273      1.0  0.18321  0.68247  0.19852  1.0000
  C   C274      1.0  0.15337  0.63400  0.18917  1.0000
  C   C275      1.0  0.17882  0.69496  0.19065  1.0000
  C   C276      1.0  0.15181  0.65529  0.18067  1.0000
  C   C277      1.0  0.16524  0.67594  0.18430  1.0000
  C   C278      1.0  0.14330  0.63302  0.17750  1.0000
  C   C279      1.0  0.16764  0.69080  0.18183  1.0000
  C   C280      1.0  0.18413  0.70869  0.18942  1.0000
  C   C281      1.0  0.14228  0.64676  0.17207  1.0000
  C   C282      1.0  0.13565  0.62175  0.17178  1.0000
  C   C283      1.0  0.16128  0.69966  0.17206  1.0000
  C   C284      1.0  0.17819  0.71776  0.17910  1.0000
  C   C285      1.0  0.13342  0.64950  0.16062  1.0000
  C   C286      1.0  0.12681  0.62435  0.16004  1.0000
  C   C287      1.0  0.16646  0.71354  0.17091  1.0000
  C   C288      1.0  0.12570  0.63815  0.15464  1.0000
  N   N65       1.0  0.19393  0.65859  0.21322  1.0000
  N   N66       1.0  0.19636  0.63794  0.22665  1.0000
  N   N67       1.0  0.17699  0.63525  0.21039  1.0000
  N   N68       1.0  0.19350  0.68329  0.20834  1.0000
  N   N69       1.0  0.15837  0.62297  0.19615  1.0000
  N   N70       1.0  0.15793  0.64768  0.19127  1.0000
  N   N71       1.0  0.17487  0.67101  0.19410  1.0000
  N   N72       1.0  0.15551  0.66833  0.17784  1.0000
  Zn  Zn9       1.0  0.17593  0.65313  0.20224  1.0000
  Br  Br145     1.0  0.15107  0.74994  0.87852  1.0000
  Br  Br146     1.0  0.15404  0.72884  0.90555  1.0000
  Br  Br147     1.0  0.18529  0.72164  0.91831  1.0000
  Br  Br148     1.0  0.21310  0.73628  0.90555  1.0000
  Br  Br149     1.0  0.24194  0.74309  0.89381  1.0000
  Br  Br150     1.0  0.27627  0.74255  0.89033  1.0000
  Br  Br151     1.0  0.29083  0.75699  0.86251  1.0000
  Br  Br152     1.0  0.27169  0.77337  0.83931  1.0000
  Br  Br153     1.0  0.14087  0.77185  0.85682  1.0000
  Br  Br154     1.0  0.26149  0.79528  0.81762  1.0000
  Br  Br155     1.0  0.17061  0.80213  0.80233  1.0000
  Br  Br156     1.0  0.12173  0.78823  0.83362  1.0000
  Br  Br157     1.0  0.19945  0.80894  0.79059  1.0000
  Br  Br158     1.0  0.25851  0.81638  0.79059  1.0000
  Br  Br159     1.0  0.13628  0.80267  0.80581  1.0000
  Br  Br160     1.0  0.22726  0.82358  0.77782  1.0000
  C   C289      1.0  0.20435  0.75647  0.87614  1.0000
  C   C290      1.0  0.22725  0.76020  0.86711  1.0000
  C   C291      1.0  0.23671  0.77150  0.84839  1.0000
  C   C292      1.0  0.18343  0.76163  0.86815  1.0000
  C   C293      1.0  0.19452  0.74878  0.88518  1.0000
  C   C294      1.0  0.18103  0.75205  0.88002  1.0000
  C   C295      1.0  0.16877  0.74643  0.88606  1.0000
  C   C296      1.0  0.17014  0.73703  0.89756  1.0000
  C   C297      1.0  0.18366  0.73381  0.90282  1.0000
  C   C298      1.0  0.19599  0.73967  0.89667  1.0000
  C   C299      1.0  0.24240  0.75931  0.86862  1.0000
  C   C300      1.0  0.25026  0.75219  0.87872  1.0000
  C   C301      1.0  0.26502  0.75193  0.87709  1.0000
  C   C302      1.0  0.27125  0.75824  0.86509  1.0000
  C   C303      1.0  0.26305  0.76595  0.85523  1.0000
  C   C304      1.0  0.24839  0.76633  0.85700  1.0000
  C   C305      1.0  0.17585  0.77372  0.84775  1.0000
  C   C306      1.0  0.22913  0.78359  0.82799  1.0000
  C   C307      1.0  0.16417  0.77889  0.83913  1.0000
  C   C308      1.0  0.20821  0.78875  0.82000  1.0000
  C   C309      1.0  0.18531  0.78502  0.82903  1.0000
  C   C310      1.0  0.23153  0.79317  0.81612  1.0000
  C   C311      1.0  0.17015  0.78591  0.82752  1.0000
  C   C312      1.0  0.14951  0.77927  0.84091  1.0000
  C   C313      1.0  0.21803  0.79644  0.81096  1.0000
  C   C314      1.0  0.24378  0.79879  0.81008  1.0000
  C   C315      1.0  0.16230  0.79303  0.81742  1.0000
  C   C316      1.0  0.14131  0.78698  0.83105  1.0000
  C   C317      1.0  0.21656  0.80554  0.79947  1.0000
  C   C318      1.0  0.24242  0.80819  0.79858  1.0000
  C   C319      1.0  0.14754  0.79329  0.81905  1.0000
  C   C320      1.0  0.22890  0.81141  0.79332  1.0000
  N   N73       1.0  0.19758  0.76462  0.86636  1.0000
  N   N74       1.0  0.21808  0.75475  0.87609  1.0000
  N   N75       1.0  0.22399  0.76725  0.85475  1.0000
  N   N76       1.0  0.17339  0.76601  0.85947  1.0000
  N   N77       1.0  0.23917  0.77921  0.83667  1.0000
  N   N78       1.0  0.21498  0.78060  0.82978  1.0000
  N   N79       1.0  0.18856  0.77796  0.84138  1.0000
  N   N80       1.0  0.19447  0.79047  0.82005  1.0000
  Zn  Zn10      1.0  0.20628  0.77261  0.84807  1.0000
  Br  Br161     1.0  0.21870  0.29060  0.79985  1.0000
  Br  Br162     1.0  0.20723  0.30454  0.77054  1.0000
  Br  Br163     1.0  0.17327  0.30677  0.76476  1.0000
  Br  Br164     1.0  0.15093  0.29678  0.78825  1.0000
  Br  Br165     1.0  0.12664  0.28405  0.80450  1.0000
  Br  Br166     1.0  0.09435  0.27435  0.81185  1.0000
  Br  Br167     1.0  0.08852  0.25351  0.83880  1.0000
  Br  Br168     1.0  0.11421  0.24388  0.85930  1.0000
  Br  Br169     1.0  0.23587  0.28306  0.82636  1.0000
  Br  Br170     1.0  0.13138  0.23634  0.88581  1.0000
  Br  Br171     1.0  0.22344  0.24289  0.88116  1.0000
  Br  Br172     1.0  0.26156  0.27343  0.84687  1.0000
  Br  Br173     1.0  0.19915  0.23016  0.89742  1.0000
  Br  Br174     1.0  0.14285  0.22239  0.91512  1.0000
  Br  Br175     1.0  0.25573  0.25259  0.87381  1.0000
  Br  Br176     1.0  0.17680  0.22017  0.92090  1.0000
  C   C321      1.0  0.16848  0.28142  0.81662  1.0000
  C   C322      1.0  0.14897  0.27084  0.82791  1.0000
  C   C323      1.0  0.14551  0.25758  0.84740  1.0000
  C   C324      1.0  0.19110  0.28057  0.82057  1.0000
  C   C325      1.0  0.17502  0.28782  0.80423  1.0000
  C   C326      1.0  0.18961  0.28725  0.80673  1.0000
  C   C327      1.0  0.19943  0.29238  0.79696  1.0000
  C   C328      1.0  0.19442  0.29811  0.78413  1.0000
  C   C329      1.0  0.17979  0.29879  0.78164  1.0000
  C   C330      1.0  0.16994  0.29366  0.79169  1.0000
  C   C331      1.0  0.13390  0.26895  0.82934  1.0000
  C   C332      1.0  0.12318  0.27323  0.82033  1.0000
  C   C333      1.0  0.10933  0.26892  0.82352  1.0000
  C   C334      1.0  0.10687  0.25999  0.83521  1.0000
  C   C335      1.0  0.11792  0.25624  0.84458  1.0000
  C   C336      1.0  0.13165  0.26070  0.84146  1.0000
  C   C337      1.0  0.20457  0.26936  0.83827  1.0000
  C   C338      1.0  0.15898  0.24637  0.86509  1.0000
  C   C339      1.0  0.21843  0.26624  0.84421  1.0000
  C   C340      1.0  0.18160  0.24552  0.86904  1.0000
  C   C341      1.0  0.20110  0.25610  0.85775  1.0000
  C   C342      1.0  0.16047  0.23970  0.87893  1.0000
  C   C343      1.0  0.21618  0.25799  0.85632  1.0000
  C   C344      1.0  0.23216  0.27070  0.84108  1.0000
  C   C345      1.0  0.17505  0.23912  0.88143  1.0000
  C   C346      1.0  0.15064  0.23456  0.88871  1.0000
  C   C347      1.0  0.22689  0.25371  0.86533  1.0000
  C   C348      1.0  0.24321  0.26695  0.85045  1.0000
  C   C349      1.0  0.18014  0.23328  0.89397  1.0000
  C   C350      1.0  0.15566  0.22883  0.90154  1.0000
  C   C351      1.0  0.24075  0.25802  0.86214  1.0000
  C   C352      1.0  0.17029  0.22815  0.90402  1.0000
  N   N81       1.0  0.17817  0.27766  0.82662  1.0000
  N   N82       1.0  0.15509  0.27806  0.81767  1.0000
  N   N83       1.0  0.15581  0.26369  0.83864  1.0000
  N   N84       1.0  0.20333  0.27674  0.82614  1.0000
  N   N85       1.0  0.14674  0.25020  0.85952  1.0000
  N   N86       1.0  0.17191  0.24928  0.85904  1.0000
  N   N87       1.0  0.19426  0.26325  0.84703  1.0000
  N   N88       1.0  0.19499  0.24888  0.86799  1.0000
  Zn  Zn11      1.0  0.17504  0.26347  0.84283  1.0000
  Br  Br177     1.0  0.29984  0.13276  0.08523  1.0000
  Br  Br178     1.0  0.30537  0.13000  0.05137  1.0000
  Br  Br179     1.0  0.29566  0.15553  0.03028  1.0000
  Br  Br180     1.0  0.28207  0.18407  0.04260  1.0000
  Br  Br181     1.0  0.26436  0.20986  0.04868  1.0000
  Br  Br182     1.0  0.24572  0.23829  0.04274  1.0000
  Br  Br183     1.0  0.22780  0.25265  0.06857  1.0000
  Br  Br184     1.0  0.22980  0.24001  0.10034  1.0000
  Br  Br185     1.0  0.30180  0.13073  0.11759  1.0000
  Br  Br186     1.0  0.23176  0.23798  0.13269  1.0000
  Br  Br187     1.0  0.26723  0.16088  0.16924  1.0000
  Br  Br188     1.0  0.30379  0.11809  0.14936  1.0000
  Br  Br189     1.0  0.24952  0.18667  0.17532  1.0000
  Br  Br190     1.0  0.22623  0.24074  0.16655  1.0000
  Br  Br191     1.0  0.28588  0.13245  0.17519  1.0000
  Br  Br192     1.0  0.23594  0.21521  0.18764  1.0000
  C   C353      1.0  0.27708  0.18102  0.07886  1.0000
  C   C354      1.0  0.26229  0.20074  0.08236  1.0000
  C   C355      1.0  0.25127  0.21088  0.10088  1.0000
  C   C356      1.0  0.28415  0.16419  0.09282  1.0000
  C   C357      1.0  0.28360  0.17054  0.06964  1.0000
  C   C358      1.0  0.28813  0.15966  0.07861  1.0000
  C   C359      1.0  0.29486  0.14756  0.07345  1.0000
  C   C360      1.0  0.29694  0.14626  0.05874  1.0000
  C   C361      1.0  0.29249  0.15721  0.04973  1.0000
  C   C362      1.0  0.28578  0.16947  0.05511  1.0000
  C   C363      1.0  0.25580  0.21353  0.07716  1.0000
  C   C364      1.0  0.25516  0.21862  0.06345  1.0000
  C   C365      1.0  0.24703  0.23081  0.06097  1.0000
  C   C366      1.0  0.23937  0.23700  0.07218  1.0000
  C   C367      1.0  0.24067  0.23194  0.08620  1.0000
  C   C368      1.0  0.24891  0.21993  0.08863  1.0000
  C   C369      1.0  0.28033  0.15986  0.11704  1.0000
  C   C370      1.0  0.24744  0.20655  0.12510  1.0000
  C   C371      1.0  0.28269  0.15081  0.12929  1.0000
  C   C372      1.0  0.25452  0.18972  0.13906  1.0000
  C   C373      1.0  0.26931  0.17000  0.13557  1.0000
  C   C374      1.0  0.24347  0.21108  0.13932  1.0000
  C   C375      1.0  0.27580  0.15721  0.14076  1.0000
  C   C376      1.0  0.29093  0.13880  0.13172  1.0000
  C   C377      1.0  0.24800  0.20020  0.14829  1.0000
  C   C378      1.0  0.23673  0.22318  0.14447  1.0000
  C   C379      1.0  0.27644  0.15212  0.15447  1.0000
  C   C380      1.0  0.29223  0.13373  0.14575  1.0000
  C   C381      1.0  0.24581  0.20127  0.16282  1.0000
  C   C382      1.0  0.23466  0.22448  0.15919  1.0000
  C   C383      1.0  0.28457  0.13993  0.15695  1.0000
  C   C384      1.0  0.23911  0.21353  0.16820  1.0000
  N   N89       1.0  0.27801  0.17740  0.09279  1.0000
  N   N90       1.0  0.26971  0.19190  0.07453  1.0000
  N   N91       1.0  0.25920  0.19912  0.09653  1.0000
  N   N92       1.0  0.28526  0.15615  0.10420  1.0000
  N   N93       1.0  0.24633  0.21459  0.11372  1.0000
  N   N94       1.0  0.25359  0.19334  0.12513  1.0000
  N   N95       1.0  0.27239  0.17161  0.12139  1.0000
  N   N96       1.0  0.26189  0.17883  0.14340  1.0000
  Zn  Zn12      1.0  0.26580  0.18537  0.10896  1.0000
  Br  Br193     1.0  0.31130  0.55903  0.93860  1.0000
  Br  Br194     1.0  0.30403  0.52541  0.93715  1.0000
  Br  Br195     1.0  0.32636  0.50248  0.95007  1.0000
  Br  Br196     1.0  0.35475  0.51267  0.96559  1.0000
  Br  Br197     1.0  0.38458  0.51694  0.97598  1.0000
  Br  Br198     1.0  0.41631  0.50903  0.98699  1.0000
  Br  Br199     1.0  0.44015  0.53391  0.98964  1.0000
  Br  Br200     1.0  0.43209  0.56656  0.98317  1.0000
  Br  Br201     1.0  0.30964  0.59140  0.94060  1.0000
  Br  Br202     1.0  0.43044  0.59894  0.98518  1.0000
  Br  Br203     1.0  0.35716  0.64102  0.94780  1.0000
  Br  Br204     1.0  0.30159  0.62406  0.93414  1.0000
  Br  Br205     1.0  0.38699  0.64529  0.95818  1.0000
  Br  Br206     1.0  0.43770  0.63255  0.98662  1.0000
  Br  Br207     1.0  0.32542  0.64894  0.93678  1.0000
  Br  Br208     1.0  0.41538  0.65548  0.97371  1.0000
  C   C385      1.0  0.35819  0.54914  0.96291  1.0000
  C   C386      1.0  0.38195  0.55128  0.97001  1.0000
  C   C387      1.0  0.39749  0.56910  0.97289  1.0000
  C   C388      1.0  0.34293  0.56430  0.95480  1.0000
  C   C389      1.0  0.34637  0.54069  0.95777  1.0000
  C   C390      1.0  0.33654  0.55044  0.95250  1.0000
  C   C391      1.0  0.32373  0.54617  0.94651  1.0000
  C   C392      1.0  0.32078  0.53157  0.94561  1.0000
  C   C393      1.0  0.33058  0.52178  0.95098  1.0000
  C   C394      1.0  0.34348  0.52626  0.95713  1.0000
  C   C395      1.0  0.39462  0.54517  0.97592  1.0000
  C   C396      1.0  0.39771  0.53110  0.97855  1.0000
  C   C397      1.0  0.41142  0.52778  0.98320  1.0000
  C   C398      1.0  0.42165  0.53858  0.98439  1.0000
  C   C399      1.0  0.41807  0.55295  0.98219  1.0000
  C   C400      1.0  0.40437  0.55620  0.97775  1.0000
  C   C401      1.0  0.34424  0.58886  0.95089  1.0000
  C   C402      1.0  0.39880  0.59366  0.96897  1.0000
  C   C403      1.0  0.33737  0.60176  0.94603  1.0000
  C   C404      1.0  0.38355  0.60882  0.96086  1.0000
  C   C405      1.0  0.35979  0.60669  0.95376  1.0000
  C   C406      1.0  0.40519  0.60753  0.97128  1.0000
  C   C407      1.0  0.34711  0.61279  0.94786  1.0000
  C   C408      1.0  0.32367  0.60502  0.94158  1.0000
  C   C409      1.0  0.39537  0.61727  0.96600  1.0000
  C   C410      1.0  0.41801  0.61180  0.97726  1.0000
  C   C411      1.0  0.34403  0.62686  0.94522  1.0000
  C   C412      1.0  0.32009  0.61938  0.93939  1.0000
  C   C413      1.0  0.39826  0.63170  0.96664  1.0000
  C   C414      1.0  0.42096  0.62639  0.97817  1.0000
  C   C415      1.0  0.33031  0.63018  0.94058  1.0000
  C   C416      1.0  0.41116  0.63618  0.97279  1.0000
  N   N97       1.0  0.35576  0.56330  0.96164  1.0000
  N   N98       1.0  0.37045  0.54407  0.96683  1.0000
  N   N99       1.0  0.38395  0.56559  0.96795  1.0000
  N   N100      1.0  0.33763  0.57628  0.94993  1.0000
  N   N101      1.0  0.40411  0.58168  0.97385  1.0000
  N   N102      1.0  0.38597  0.59466  0.96213  1.0000
  N   N103      1.0  0.35779  0.59238  0.95582  1.0000
  N   N104      1.0  0.37129  0.61390  0.95694  1.0000
  Zn  Zn13      1.0  0.37087  0.57898  0.96189  1.0000
  Br  Br209     1.0  0.04491  0.39777  0.89059  1.0000
  Br  Br210     1.0  0.03449  0.38990  0.92244  1.0000
  Br  Br211     1.0  0.02097  0.41443  0.94260  1.0000
  Br  Br212     1.0  0.01637  0.44596  0.93095  1.0000
  Br  Br213     1.0  0.01508  0.47750  0.92654  1.0000
  Br  Br214     1.0  0.01002  0.51087  0.93375  1.0000
  Br  Br215     1.0  0.02064  0.53495  0.91135  1.0000
  Br  Br216     1.0  0.03447  0.52599  0.88133  1.0000
  Br  Br217     1.0  0.05234  0.39713  0.85898  1.0000
  Br  Br218     1.0  0.04190  0.52535  0.84972  1.0000
  Br  Br219     1.0  0.07173  0.44562  0.81377  1.0000
  Br  Br220     1.0  0.06617  0.38817  0.82896  1.0000
  Br  Br221     1.0  0.07044  0.47717  0.80936  1.0000
  Br  Br222     1.0  0.05231  0.53322  0.81787  1.0000
  Br  Br223     1.0  0.07678  0.41225  0.80657  1.0000
  Br  Br224     1.0  0.06584  0.50869  0.79771  1.0000
  C   C417      1.0  0.03055  0.44912  0.89722  1.0000
  C   C418      1.0  0.03023  0.47394  0.89525  1.0000
  C   C419      1.0  0.03657  0.48995  0.87879  1.0000
  C   C420      1.0  0.03897  0.43254  0.88372  1.0000
  C   C421      1.0  0.02998  0.43628  0.90571  1.0000
  C   C422      1.0  0.03545  0.42558  0.89705  1.0000
  C   C423      1.0  0.03669  0.41161  0.90170  1.0000
  C   C424      1.0  0.03246  0.40832  0.91563  1.0000
  C   C425      1.0  0.02688  0.41902  0.92430  1.0000
  C   C426      1.0  0.02558  0.43311  0.91941  1.0000
  C   C427      1.0  0.02594  0.48760  0.90051  1.0000
  C   C428      1.0  0.02003  0.49105  0.91345  1.0000
  C   C429      1.0  0.01798  0.50545  0.91650  1.0000
  C   C430      1.0  0.02252  0.51580  0.90676  1.0000
  C   C431      1.0  0.02800  0.51198  0.89337  1.0000
  C   C432      1.0  0.02984  0.49765  0.89032  1.0000
  C   C433      1.0  0.05024  0.43317  0.86152  1.0000
  C   C434      1.0  0.04783  0.49058  0.85659  1.0000
  C   C435      1.0  0.05696  0.42547  0.85000  1.0000
  C   C436      1.0  0.05626  0.47400  0.84310  1.0000
  C   C437      1.0  0.05658  0.44918  0.84506  1.0000
  C   C438      1.0  0.05135  0.49754  0.84327  1.0000
  C   C439      1.0  0.06087  0.43552  0.83981  1.0000
  C   C440      1.0  0.05881  0.41114  0.84695  1.0000
  C   C441      1.0  0.05682  0.48684  0.83461  1.0000
  C   C442      1.0  0.05012  0.51151  0.83861  1.0000
  C   C443      1.0  0.06678  0.43207  0.82686  1.0000
  C   C444      1.0  0.06429  0.40733  0.83355  1.0000
  C   C445      1.0  0.06123  0.49001  0.82091  1.0000
  C   C446      1.0  0.05434  0.51480  0.82469  1.0000
  C   C447      1.0  0.06883  0.41768  0.82381  1.0000
  C   C448      1.0  0.05992  0.50410  0.81601  1.0000
  N   N105      1.0  0.03538  0.44666  0.88386  1.0000
  N   N106      1.0  0.02830  0.46191  0.90202  1.0000
  N   N107      1.0  0.03688  0.47555  0.88236  1.0000
  N   N108      1.0  0.04581  0.42635  0.87322  1.0000
  N   N109      1.0  0.04100  0.49678  0.86709  1.0000
  N   N110      1.0  0.05142  0.47646  0.85646  1.0000
  N   N111      1.0  0.04992  0.44757  0.85795  1.0000
  N   N112      1.0  0.05851  0.46121  0.83829  1.0000
  Zn  Zn14      1.0  0.04340  0.46156  0.87016  1.0000
  Br  Br225     1.0  0.64879  0.76348  0.66489  1.0000
  Br  Br226     1.0  0.61573  0.77044  0.67147  1.0000
  Br  Br227     1.0  0.60464  0.77169  0.70413  1.0000
  Br  Br228     1.0  0.62621  0.76766  0.73000  1.0000
  Br  Br229     1.0  0.64115  0.75933  0.75689  1.0000
  Br  Br230     1.0  0.64566  0.75197  0.79031  1.0000
  Br  Br231     1.0  0.67545  0.73799  0.80083  1.0000
  Br  Br232     1.0  0.70117  0.73302  0.77876  1.0000
  Br  Br233     1.0  0.67856  0.76203  0.65199  1.0000
  Br  Br234     1.0  0.73094  0.73158  0.76585  1.0000
  Br  Br235     1.0  0.73857  0.73573  0.67386  1.0000
  Br  Br236     1.0  0.70427  0.75707  0.62992  1.0000
  Br  Br237     1.0  0.75351  0.72740  0.70075  1.0000
  Br  Br238     1.0  0.76400  0.72462  0.75928  1.0000
  Br  Br239     1.0  0.73407  0.74308  0.64044  1.0000
  Br  Br240     1.0  0.77508  0.72337  0.72662  1.0000
  C   C449      1.0  0.65960  0.75904  0.71734  1.0000
  C   C450      1.0  0.66998  0.75159  0.73871  1.0000
  C   C451      1.0  0.69123  0.74322  0.74549  1.0000
  C   C452      1.0  0.66693  0.75884  0.69557  1.0000
  C   C453      1.0  0.64719  0.76233  0.70883  1.0000
  C   C454      1.0  0.65188  0.76216  0.69478  1.0000
  C   C455      1.0  0.64276  0.76478  0.68346  1.0000
  C   C456      1.0  0.62837  0.76747  0.68634  1.0000
  C   C457      1.0  0.62366  0.76774  0.70043  1.0000
  C   C458      1.0  0.63304  0.76518  0.71182  1.0000
  C   C459      1.0  0.66956  0.75026  0.75390  1.0000
  C   C460      1.0  0.65833  0.75249  0.76304  1.0000
  C   C461      1.0  0.66033  0.74920  0.77739  1.0000
  C   C462      1.0  0.67325  0.74323  0.78188  1.0000
  C   C463      1.0  0.68475  0.74160  0.77244  1.0000
  C   C464      1.0  0.68276  0.74505  0.75822  1.0000
  C   C465      1.0  0.68850  0.75184  0.68526  1.0000
  C   C466      1.0  0.71279  0.73622  0.73518  1.0000
  C   C467      1.0  0.69697  0.75000  0.67253  1.0000
  C   C468      1.0  0.72012  0.73602  0.71340  1.0000
  C   C469      1.0  0.70975  0.74347  0.69204  1.0000
  C   C470      1.0  0.72785  0.73290  0.73597  1.0000
  C   C471      1.0  0.71017  0.74480  0.67684  1.0000
  C   C472      1.0  0.69498  0.75346  0.65830  1.0000
  C   C473      1.0  0.73254  0.73273  0.72192  1.0000
  C   C474      1.0  0.73697  0.73027  0.74729  1.0000
  C   C475      1.0  0.72139  0.74257  0.66771  1.0000
  C   C476      1.0  0.70648  0.75183  0.64887  1.0000
  C   C477      1.0  0.74668  0.72988  0.71893  1.0000
  C   C478      1.0  0.75136  0.72759  0.74440  1.0000
  C   C479      1.0  0.71939  0.74585  0.65336  1.0000
  C   C480      1.0  0.75607  0.72732  0.73032  1.0000
  N   N113      1.0  0.67151  0.75757  0.70934  1.0000
  N   N114      1.0  0.65939  0.75617  0.73088  1.0000
  N   N115      1.0  0.68294  0.74701  0.73378  1.0000
  N   N116      1.0  0.67497  0.75624  0.68443  1.0000
  N   N117      1.0  0.70476  0.73882  0.74632  1.0000
  N   N118      1.0  0.70822  0.73749  0.72140  1.0000
  N   N119      1.0  0.69679  0.74805  0.69696  1.0000
  N   N120      1.0  0.72033  0.73889  0.69986  1.0000
  Zn  Zn15      1.0  0.68986  0.74753  0.71537  1.0000
  Br  Br241     1.0  0.02353  0.11055  0.79733  1.0000
  Br  Br242     1.0  0.01938  0.08132  0.81503  1.0000
  Br  Br243     1.0  0.03603  0.07689  0.84494  1.0000
  Br  Br244     1.0  0.05530  0.10159  0.85796  1.0000
  Br  Br245     1.0  0.07826  0.11923  0.87128  1.0000
  Br  Br246     1.0  0.10342  0.12822  0.89312  1.0000
  Br  Br247     1.0  0.12278  0.15602  0.88633  1.0000
  Br  Br248     1.0  0.11609  0.17573  0.85913  1.0000
  Br  Br249     1.0  0.01937  0.13655  0.77831  1.0000
  Br  Br250     1.0  0.11193  0.20173  0.84012  1.0000
  Br  Br251     1.0  0.05720  0.19305  0.76617  1.0000
  Br  Br252     1.0  0.01268  0.15626  0.75111  1.0000
  Br  Br253     1.0  0.08016  0.21069  0.77948  1.0000
  Br  Br254     1.0  0.11608  0.23096  0.82241  1.0000
  Br  Br255     1.0  0.03204  0.18407  0.74432  1.0000
  Br  Br256     1.0  0.09943  0.23539  0.79251  1.0000
  C   C481      1.0  0.05742  0.12968  0.83439  1.0000
  C   C482      1.0  0.07625  0.14209  0.84492  1.0000
  C   C483      1.0  0.08833  0.16211  0.84034  1.0000
  C   C484      1.0  0.04579  0.13270  0.81480  1.0000
  C   C485      1.0  0.04911  0.11683  0.83255  1.0000
  C   C486      1.0  0.04165  0.11873  0.81990  1.0000
  C   C487      1.0  0.03252  0.10840  0.81457  1.0000
  C   C488      1.0  0.03102  0.09562  0.82211  1.0000
  C   C489      1.0  0.03842  0.09373  0.83485  1.0000
  C   C490      1.0  0.04754  0.10433  0.84020  1.0000
  C   C491      1.0  0.08587  0.14420  0.85657  1.0000
  C   C492      1.0  0.08846  0.13552  0.86807  1.0000
  C   C493      1.0  0.09937  0.13942  0.87737  1.0000
  C   C494      1.0  0.10765  0.15147  0.87442  1.0000
  C   C495      1.0  0.10442  0.16049  0.86292  1.0000
  C   C496      1.0  0.09344  0.15666  0.85381  1.0000
  C   C497      1.0  0.04713  0.15017  0.79710  1.0000
  C   C498      1.0  0.08967  0.17958  0.82264  1.0000
  C   C499      1.0  0.04202  0.15562  0.78363  1.0000
  C   C500      1.0  0.07805  0.18260  0.80306  1.0000
  C   C501      1.0  0.05921  0.17019  0.79252  1.0000
  C   C502      1.0  0.09382  0.19355  0.81754  1.0000
  C   C503      1.0  0.04959  0.16808  0.78087  1.0000
  C   C504      1.0  0.03104  0.15179  0.77452  1.0000
  C   C505      1.0  0.08635  0.19545  0.80490  1.0000
  C   C506      1.0  0.10294  0.20388  0.82288  1.0000
  C   C507      1.0  0.04700  0.17676  0.76937  1.0000
  C   C508      1.0  0.02781  0.16081  0.76302  1.0000
  C   C509      1.0  0.08792  0.20795  0.79725  1.0000
  C   C510      1.0  0.10445  0.21666  0.81533  1.0000
  C   C511      1.0  0.03609  0.17286  0.76008  1.0000
  C   C512      1.0  0.09704  0.21855  0.80260  1.0000
  N   N121      1.0  0.05489  0.13937  0.82402  1.0000
  N   N122      1.0  0.06739  0.13138  0.84384  1.0000
  N   N123      1.0  0.07808  0.15274  0.83511  1.0000
  N   N124      1.0  0.04218  0.13788  0.80233  1.0000
  N   N125      1.0  0.09328  0.17440  0.83512  1.0000
  N   N126      1.0  0.08057  0.17291  0.81342  1.0000
  N   N127      1.0  0.05738  0.15954  0.80233  1.0000
  N   N128      1.0  0.06807  0.18089  0.79361  1.0000
  Zn  Zn16      1.0  0.06773  0.15614  0.81872  1.0000
  Br  Br257     1.0  0.66318  0.45647  0.59620  1.0000
  Br  Br258     1.0  0.66000  0.44358  0.56444  1.0000
  Br  Br259     1.0  0.63739  0.45759  0.54245  1.0000
  Br  Br260     1.0  0.61927  0.48491  0.55117  1.0000
  Br  Br261     1.0  0.59659  0.50668  0.55641  1.0000
  Br  Br262     1.0  0.56900  0.52655  0.55050  1.0000
  Br  Br263     1.0  0.55507  0.54457  0.57649  1.0000
  Br  Br264     1.0  0.56943  0.54431  0.60758  1.0000
  Br  Br265     1.0  0.67429  0.46609  0.62516  1.0000
  Br  Br266     1.0  0.58054  0.55394  0.63654  1.0000
  Br  Br267     1.0  0.64713  0.50372  0.67633  1.0000
  Br  Br268     1.0  0.68865  0.46583  0.65625  1.0000
  Br  Br269     1.0  0.62446  0.52550  0.68158  1.0000
  Br  Br270     1.0  0.58372  0.56682  0.66830  1.0000
  Br  Br271     1.0  0.67472  0.48385  0.68224  1.0000
  Br  Br272     1.0  0.60633  0.55281  0.69029  1.0000
  C   C513      1.0  0.62543  0.49341  0.58636  1.0000
  C   C514      1.0  0.60664  0.50939  0.58978  1.0000
  C   C515      1.0  0.59837  0.52258  0.60781  1.0000
  C   C516      1.0  0.64096  0.48435  0.60067  1.0000
  C   C517      1.0  0.63221  0.48211  0.57839  1.0000
  C   C518      1.0  0.64220  0.47622  0.58760  1.0000
  C   C519      1.0  0.65079  0.46488  0.58362  1.0000
  C   C520      1.0  0.64914  0.45912  0.56996  1.0000
  C   C521      1.0  0.63920  0.46508  0.56066  1.0000
  C   C522      1.0  0.63064  0.47665  0.56479  1.0000
  C   C523      1.0  0.59528  0.51789  0.58417  1.0000
  C   C524      1.0  0.58939  0.51772  0.57077  1.0000
  C   C525      1.0  0.57746  0.52623  0.56834  1.0000
  C   C526      1.0  0.57154  0.53404  0.57959  1.0000
  C   C527      1.0  0.57809  0.53449  0.59304  1.0000
  C   C528      1.0  0.59006  0.52614  0.59534  1.0000
  C   C529      1.0  0.64536  0.48782  0.62493  1.0000
  C   C530      1.0  0.60277  0.52605  0.63207  1.0000
  C   C531      1.0  0.65367  0.48426  0.63741  1.0000
  C   C532      1.0  0.61830  0.51699  0.64638  1.0000
  C   C533      1.0  0.63708  0.50101  0.64296  1.0000
  C   C534      1.0  0.60153  0.53418  0.64514  1.0000
  C   C535      1.0  0.64845  0.49251  0.64857  1.0000
  C   C536      1.0  0.66564  0.47592  0.63971  1.0000
  C   C537      1.0  0.61151  0.52829  0.65436  1.0000
  C   C538      1.0  0.59294  0.54553  0.64912  1.0000
  C   C539      1.0  0.65433  0.49268  0.66197  1.0000
  C   C540      1.0  0.67219  0.47636  0.65316  1.0000
  C   C541      1.0  0.61308  0.53375  0.66795  1.0000
  C   C542      1.0  0.59459  0.55128  0.66278  1.0000
  C   C543      1.0  0.66626  0.48417  0.66440  1.0000
  C   C544      1.0  0.60453  0.54533  0.67208  1.0000
  N   N129      1.0  0.63116  0.49507  0.59949  1.0000
  N   N130      1.0  0.61410  0.50027  0.58233  1.0000
  N   N131      1.0  0.60816  0.51208  0.60404  1.0000
  N   N132      1.0  0.64758  0.48114  0.61255  1.0000
  N   N133      1.0  0.59614  0.52927  0.62019  1.0000
  N   N134      1.0  0.61257  0.51533  0.63325  1.0000
  N   N135      1.0  0.63557  0.49832  0.62870  1.0000
  N   N136      1.0  0.62963  0.51013  0.65042  1.0000
  Zn  Zn17      1.0  0.62186  0.50520  0.61637  1.0000
  Br  Br273     1.0  0.27015  0.35658  0.55329  1.0000
  Br  Br274     1.0  0.23928  0.37108  0.54858  1.0000
  Br  Br275     1.0  0.21416  0.36578  0.57163  1.0000
  Br  Br276     1.0  0.21987  0.34768  0.59975  1.0000
  Br  Br277     1.0  0.21876  0.32744  0.62435  1.0000
  Br  Br278     1.0  0.20561  0.30934  0.65062  1.0000
  Br  Br279     1.0  0.22447  0.28435  0.66525  1.0000
  Br  Br280     1.0  0.25668  0.27859  0.65513  1.0000
  Br  Br281     1.0  0.30194  0.34998  0.55375  1.0000
  Br  Br282     1.0  0.28848  0.27199  0.65559  1.0000
  Br  Br283     1.0  0.33986  0.30113  0.58453  1.0000
  Br  Br284     1.0  0.33415  0.34422  0.54363  1.0000
  Br  Br285     1.0  0.33875  0.28089  0.60913  1.0000
  Br  Br286     1.0  0.31934  0.25749  0.66030  1.0000
  Br  Br287     1.0  0.35301  0.31923  0.55826  1.0000
  Br  Br288     1.0  0.34447  0.26279  0.63725  1.0000
  C   C545      1.0  0.25371  0.33341  0.59890  1.0000
  C   C546      1.0  0.25142  0.31704  0.61752  1.0000
  C   C547      1.0  0.26544  0.30089  0.62801  1.0000
  C   C548      1.0  0.27050  0.33754  0.58376  1.0000
  C   C549      1.0  0.24749  0.34278  0.58837  1.0000
  C   C550      1.0  0.25828  0.34542  0.57857  1.0000
  C   C551      1.0  0.25618  0.35402  0.56674  1.0000
  C   C552      1.0  0.24269  0.36001  0.56457  1.0000
  C   C553      1.0  0.23188  0.35746  0.57443  1.0000
  C   C554      1.0  0.23419  0.34882  0.58645  1.0000
  C   C555      1.0  0.24358  0.31140  0.62932  1.0000
  C   C556      1.0  0.22977  0.31411  0.63335  1.0000
  C   C557      1.0  0.22416  0.30620  0.64460  1.0000
  C   C558      1.0  0.23238  0.29547  0.65093  1.0000
  C   C559      1.0  0.24666  0.29330  0.64700  1.0000
  C   C560      1.0  0.25223  0.30132  0.63592  1.0000
  C   C561      1.0  0.29318  0.32768  0.58087  1.0000
  C   C562      1.0  0.28813  0.29103  0.62512  1.0000
  C   C563      1.0  0.30639  0.32725  0.57296  1.0000
  C   C564      1.0  0.30491  0.29515  0.60998  1.0000
  C   C565      1.0  0.30720  0.31152  0.59136  1.0000
  C   C566      1.0  0.30034  0.28315  0.63031  1.0000
  C   C567      1.0  0.31505  0.31717  0.57956  1.0000
  C   C568      1.0  0.31197  0.33527  0.56188  1.0000
  C   C569      1.0  0.31113  0.28578  0.62051  1.0000
  C   C570      1.0  0.30245  0.27455  0.64214  1.0000
  C   C571      1.0  0.32886  0.31446  0.57553  1.0000
  C   C572      1.0  0.32625  0.33309  0.55795  1.0000
  C   C573      1.0  0.32444  0.27975  0.62243  1.0000
  C   C574      1.0  0.31594  0.26856  0.64431  1.0000
  C   C575      1.0  0.33446  0.32236  0.56428  1.0000
  C   C576      1.0  0.32675  0.27111  0.63444  1.0000
  N   N137      1.0  0.26767  0.33082  0.59638  1.0000
  N   N138      1.0  0.24663  0.32681  0.60879  1.0000
  N   N139      1.0  0.26440  0.31040  0.61667  1.0000
  N   N140      1.0  0.28246  0.33607  0.57668  1.0000
  N   N141      1.0  0.27617  0.29249  0.63220  1.0000
  N   N142      1.0  0.29096  0.29775  0.61250  1.0000
  N   N143      1.0  0.29423  0.31817  0.59221  1.0000
  N   N144      1.0  0.31199  0.30176  0.60008  1.0000
  Zn  Zn18      1.0  0.27931  0.31428  0.60444  1.0000
  Br  Br289     1.0  0.81491  0.48278  0.14481  1.0000
  Br  Br290     1.0  0.84243  0.46471  0.15487  1.0000
  Br  Br291     1.0  0.85509  0.43997  0.13441  1.0000
  Br  Br292     1.0  0.84172  0.43416  0.10378  1.0000
  Br  Br293     1.0  0.82955  0.42157  0.07715  1.0000
  Br  Br294     1.0  0.82578  0.39993  0.05053  1.0000
  Br  Br295     1.0  0.79748  0.40193  0.03080  1.0000
  Br  Br296     1.0  0.77405  0.42630  0.03630  1.0000
  Br  Br297     1.0  0.79277  0.50601  0.13983  1.0000
  Br  Br298     1.0  0.75191  0.44953  0.03131  1.0000
  Br  Br299     1.0  0.73727  0.51074  0.09897  1.0000
  Br  Br300     1.0  0.76934  0.53038  0.14533  1.0000
  Br  Br301     1.0  0.72510  0.49814  0.07234  1.0000
  Br  Br302     1.0  0.72439  0.46759  0.02126  1.0000
  Br  Br303     1.0  0.74104  0.53238  0.12559  1.0000
  Br  Br304     1.0  0.71173  0.49234  0.04171  1.0000
  C   C577      1.0  0.81189  0.45504  0.09889  1.0000
  C   C578      1.0  0.80257  0.44372  0.07877  1.0000
  C   C579      1.0  0.78349  0.44652  0.06478  1.0000
  C   C580      1.0  0.80396  0.47188  0.11237  1.0000
  C   C581      1.0  0.82120  0.45517  0.11117  1.0000
  C   C582      1.0  0.81609  0.46598  0.11989  1.0000
  C   C583      1.0  0.82238  0.46921  0.13287  1.0000
  C   C584      1.0  0.83410  0.46113  0.13733  1.0000
  C   C585      1.0  0.83931  0.45033  0.12855  1.0000
  C   C586      1.0  0.83291  0.44726  0.11537  1.0000
  C   C587      1.0  0.80396  0.43370  0.06735  1.0000
  C   C588      1.0  0.81417  0.42340  0.06533  1.0000
  C   C589      1.0  0.81241  0.41407  0.05391  1.0000
  C   C590      1.0  0.80020  0.41503  0.04538  1.0000
  C   C591      1.0  0.79023  0.42601  0.04731  1.0000
  C   C592      1.0  0.79212  0.43537  0.05858  1.0000
  C   C593      1.0  0.78333  0.48579  0.11134  1.0000
  C   C594      1.0  0.76286  0.46043  0.06376  1.0000
  C   C595      1.0  0.77470  0.49693  0.11755  1.0000
  C   C596      1.0  0.75493  0.47727  0.07723  1.0000
  C   C597      1.0  0.76425  0.48858  0.09735  1.0000
  C   C598      1.0  0.75073  0.46632  0.05623  1.0000
  C   C599      1.0  0.76286  0.49860  0.10877  1.0000
  C   C600      1.0  0.77659  0.50629  0.12881  1.0000
  C   C601      1.0  0.74561  0.47714  0.06496  1.0000
  C   C602      1.0  0.74444  0.46310  0.04325  1.0000
  C   C603      1.0  0.75265  0.50891  0.11079  1.0000
  C   C604      1.0  0.76662  0.51728  0.13074  1.0000
  C   C605      1.0  0.73391  0.48505  0.06076  1.0000
  C   C606      1.0  0.73272  0.47118  0.03880  1.0000
  C   C607      1.0  0.75441  0.51824  0.12222  1.0000
  C   C608      1.0  0.72751  0.48197  0.04757  1.0000
  N   N145      1.0  0.80197  0.46549  0.09943  1.0000
  N   N146      1.0  0.81176  0.44521  0.08915  1.0000
  N   N147      1.0  0.79007  0.45111  0.07727  1.0000
  N   N148      1.0  0.79527  0.48139  0.11777  1.0000
  N   N149      1.0  0.77156  0.45091  0.05836  1.0000
  N   N150      1.0  0.76485  0.46682  0.07670  1.0000
  N   N151      1.0  0.77675  0.48120  0.09886  1.0000
  N   N152      1.0  0.75506  0.48710  0.08698  1.0000
  Zn  Zn19      1.0  0.78341  0.46615  0.08806  1.0000
  Br  Br305     1.0  0.35783  0.27727  0.02599  1.0000
  Br  Br306     1.0  0.35872  0.30921  0.01320  1.0000
  Br  Br307     1.0  0.34327  0.33493  0.03025  1.0000
  Br  Br308     1.0  0.32845  0.32949  0.06027  1.0000
  Br  Br309     1.0  0.30900  0.32839  0.08550  1.0000
  Br  Br310     1.0  0.28660  0.33920  0.10942  1.0000
  Br  Br311     1.0  0.27107  0.31612  0.12992  1.0000
  Br  Br312     1.0  0.27901  0.28287  0.12793  1.0000
  Br  Br313     1.0  0.36462  0.24660  0.03424  1.0000
  Br  Br314     1.0  0.28580  0.25220  0.13618  1.0000
  Br  Br315     1.0  0.33463  0.20108  0.07667  1.0000
  Br  Br316     1.0  0.37256  0.21334  0.03224  1.0000
  Br  Br317     1.0  0.31518  0.19997  0.10189  1.0000
  Br  Br318     1.0  0.28491  0.22025  0.14896  1.0000
  Br  Br319     1.0  0.35703  0.19026  0.05274  1.0000
  Br  Br320     1.0  0.30036  0.19453  0.13192  1.0000
  C   C609      1.0  0.32909  0.29366  0.06833  1.0000
  C   C610      1.0  0.31282  0.29369  0.08717  1.0000
  C   C611      1.0  0.30349  0.27740  0.10184  1.0000
  C   C612      1.0  0.33994  0.27676  0.05715  1.0000
  C   C613      1.0  0.33536  0.30033  0.05594  1.0000
  C   C614      1.0  0.34232  0.28946  0.04869  1.0000
  C   C615      1.0  0.34958  0.29187  0.03605  1.0000
  C   C616      1.0  0.34965  0.30567  0.03038  1.0000
  C   C617      1.0  0.34275  0.31662  0.03768  1.0000
  C   C618      1.0  0.33554  0.31405  0.05055  1.0000
  C   C619      1.0  0.30425  0.30125  0.09728  1.0000
  C   C620      1.0  0.30107  0.31553  0.09781  1.0000
  C   C621      1.0  0.29135  0.32008  0.10808  1.0000
  C   C622      1.0  0.28473  0.31007  0.11694  1.0000
  C   C623      1.0  0.28858  0.29562  0.11658  1.0000
  C   C624      1.0  0.29839  0.29118  0.10647  1.0000
  C   C625      1.0  0.34014  0.25207  0.06032  1.0000
  C   C626      1.0  0.30369  0.25270  0.10501  1.0000
  C   C627      1.0  0.34524  0.23828  0.05570  1.0000
  C   C628      1.0  0.31454  0.23581  0.09384  1.0000
  C   C629      1.0  0.33081  0.23578  0.07499  1.0000
  C   C630      1.0  0.30131  0.24001  0.11347  1.0000
  C   C631      1.0  0.33939  0.22822  0.06489  1.0000
  C   C632      1.0  0.35505  0.23385  0.04559  1.0000
  C   C633      1.0  0.30827  0.22913  0.10623  1.0000
  C   C634      1.0  0.29406  0.23759  0.12612  1.0000
  C   C635      1.0  0.34256  0.21393  0.06436  1.0000
  C   C636      1.0  0.35890  0.21939  0.04522  1.0000
  C   C637      1.0  0.30809  0.21542  0.11161  1.0000
  C   C638      1.0  0.29398  0.22379  0.13179  1.0000
  C   C639      1.0  0.35228  0.20939  0.05409  1.0000
  C   C640      1.0  0.30088  0.21285  0.12448  1.0000
  N   N153      1.0  0.33240  0.27966  0.06928  1.0000
  N   N154      1.0  0.31999  0.29969  0.07683  1.0000
  N   N155      1.0  0.31200  0.27936  0.08985  1.0000
  N   N156      1.0  0.34357  0.26388  0.05314  1.0000
  N   N157      1.0  0.30006  0.26559  0.10903  1.0000
  N   N158      1.0  0.31123  0.24981  0.09288  1.0000
  N   N159      1.0  0.33163  0.25010  0.07232  1.0000
  N   N160      1.0  0.32364  0.22977  0.08533  1.0000
  Zn  Zn20      1.0  0.32182  0.26473  0.08108  1.0000
  Br  Br321     1.0  0.71328  0.32151  0.23345  1.0000
  Br  Br322     1.0  0.70188  0.33641  0.20460  1.0000
  Br  Br323     1.0  0.70057  0.31823  0.17529  1.0000
  Br  Br324     1.0  0.70895  0.28537  0.17480  1.0000
  Br  Br325     1.0  0.72065  0.25645  0.16824  1.0000
  Br  Br326     1.0  0.73016  0.22899  0.14962  1.0000
  Br  Br327     1.0  0.74885  0.20398  0.16444  1.0000
  Br  Br328     1.0  0.75647  0.20532  0.19780  1.0000
  Br  Br329     1.0  0.71846  0.31281  0.26431  1.0000
  Br  Br330     1.0  0.76164  0.19662  0.22866  1.0000
  Br  Br331     1.0  0.75427  0.26168  0.29388  1.0000
  Br  Br332     1.0  0.72607  0.31414  0.29768  1.0000
  Br  Br333     1.0  0.76598  0.23276  0.28732  1.0000
  Br  Br334     1.0  0.77304  0.18172  0.25752  1.0000
  Br  Br335     1.0  0.74476  0.28913  0.31249  1.0000
  Br  Br336     1.0  0.77435  0.19989  0.28683  1.0000
  C   C641      1.0  0.72175  0.27513  0.20767  1.0000
  C   C642      1.0  0.73165  0.25321  0.20125  1.0000
  C   C643      1.0  0.74336  0.23572  0.21242  1.0000
  C   C644      1.0  0.72199  0.28720  0.22722  1.0000
  C   C645      1.0  0.71627  0.28904  0.20394  1.0000
  C   C646      1.0  0.71646  0.29686  0.21652  1.0000
  C   C647      1.0  0.71199  0.31093  0.21705  1.0000
  C   C648      1.0  0.70737  0.31744  0.20445  1.0000
  C   C649      1.0  0.70709  0.30959  0.19183  1.0000
  C   C650      1.0  0.71153  0.29530  0.19147  1.0000
  C   C651      1.0  0.73362  0.24202  0.19107  1.0000
  C   C652      1.0  0.73021  0.24181  0.17683  1.0000
  C   C653      1.0  0.73443  0.23000  0.16888  1.0000
  C   C654      1.0  0.74244  0.21920  0.17535  1.0000
  C   C655      1.0  0.74528  0.21938  0.19004  1.0000
  C   C656      1.0  0.74091  0.23107  0.19794  1.0000
  C   C657      1.0  0.73156  0.28241  0.24970  1.0000
  C   C658      1.0  0.75294  0.23093  0.23490  1.0000
  C   C659      1.0  0.73402  0.28706  0.26418  1.0000
  C   C660      1.0  0.75317  0.24300  0.25445  1.0000
  C   C661      1.0  0.74327  0.26492  0.26086  1.0000
  C   C662      1.0  0.75846  0.22127  0.24560  1.0000
  C   C663      1.0  0.74130  0.27611  0.27105  1.0000
  C   C664      1.0  0.72964  0.29875  0.27208  1.0000
  C   C665      1.0  0.75865  0.22909  0.25818  1.0000
  C   C666      1.0  0.76293  0.20719  0.24507  1.0000
  C   C667      1.0  0.74471  0.27631  0.28528  1.0000
  C   C668      1.0  0.73248  0.29893  0.28677  1.0000
  C   C669      1.0  0.76339  0.22283  0.27065  1.0000
  C   C670      1.0  0.76755  0.20068  0.25767  1.0000
  C   C671      1.0  0.74049  0.28813  0.29324  1.0000
  C   C672      1.0  0.76783  0.20854  0.27028  1.0000
  N   N161      1.0  0.72457  0.27394  0.22176  1.0000
  N   N162      1.0  0.72520  0.26527  0.19858  1.0000
  N   N163      1.0  0.73783  0.24941  0.21392  1.0000
  N   N164      1.0  0.72520  0.29100  0.24028  1.0000
  N   N165      1.0  0.74972  0.22713  0.22184  1.0000
  N   N166      1.0  0.75035  0.24419  0.24036  1.0000
  N   N167      1.0  0.73709  0.26872  0.24820  1.0000
  N   N168      1.0  0.74972  0.25286  0.26354  1.0000
  Zn  Zn21      1.0  0.73746  0.25906  0.23106  1.0000
  Br  Br337     1.0  0.84645  0.17289  0.41429  1.0000
  Br  Br338     1.0  0.86985  0.15176  0.42811  1.0000
  Br  Br339     1.0  0.87860  0.15524  0.46131  1.0000
  Br  Br340     1.0  0.86334  0.17825  0.48101  1.0000
  Br  Br341     1.0  0.85599  0.20137  0.50168  1.0000
  Br  Br342     1.0  0.85675  0.22020  0.53060  1.0000
  Br  Br343     1.0  0.84018  0.25050  0.53167  1.0000
  Br  Br344     1.0  0.82156  0.26117  0.50497  1.0000
  Br  Br345     1.0  0.82259  0.18592  0.39653  1.0000
  Br  Br346     1.0  0.79770  0.27420  0.48721  1.0000
  Br  Br347     1.0  0.78816  0.24572  0.39982  1.0000
  Br  Br348     1.0  0.80397  0.19659  0.36984  1.0000
  Br  Br349     1.0  0.78081  0.26884  0.42049  1.0000
  Br  Br350     1.0  0.77430  0.29533  0.47340  1.0000
  Br  Br351     1.0  0.78740  0.22690  0.37090  1.0000
  Br  Br352     1.0  0.76555  0.29185  0.44020  1.0000
  C   C673      1.0  0.84055  0.19891  0.46094  1.0000
  C   C674      1.0  0.83641  0.21712  0.47739  1.0000
  C   C675      1.0  0.82368  0.23726  0.47790  1.0000
  C   C676      1.0  0.83440  0.19606  0.43898  1.0000
  C   C677      1.0  0.84885  0.18694  0.45590  1.0000
  C   C678      1.0  0.84494  0.18511  0.44173  1.0000
  C   C679      1.0  0.85087  0.17455  0.43328  1.0000
  C   C680      1.0  0.86125  0.16563  0.43922  1.0000
  C   C681      1.0  0.86511  0.16738  0.45346  1.0000
  C   C682      1.0  0.85893  0.17806  0.46194  1.0000
  C   C683      1.0  0.83765  0.22278  0.49151  1.0000
  C   C684      1.0  0.84574  0.21791  0.50270  1.0000
  C   C685      1.0  0.84609  0.22613  0.51507  1.0000
  C   C686      1.0  0.83886  0.23918  0.51549  1.0000
  C   C687      1.0  0.83020  0.24363  0.50413  1.0000
  C   C688      1.0  0.82975  0.23532  0.49192  1.0000
  C   C689      1.0  0.82047  0.20983  0.42361  1.0000
  C   C690      1.0  0.80975  0.25103  0.46252  1.0000
  C   C691      1.0  0.81440  0.21177  0.40958  1.0000
  C   C692      1.0  0.80360  0.24818  0.44057  1.0000
  C   C693      1.0  0.80774  0.22997  0.42411  1.0000
  C   C694      1.0  0.79921  0.26198  0.45977  1.0000
  C   C695      1.0  0.80650  0.22431  0.41000  1.0000
  C   C696      1.0  0.81395  0.20346  0.39737  1.0000
  C   C697      1.0  0.79530  0.26015  0.44560  1.0000
  C   C698      1.0  0.79328  0.27254  0.46823  1.0000
  C   C699      1.0  0.79841  0.22918  0.39880  1.0000
  C   C700      1.0  0.80529  0.20792  0.38601  1.0000
  C   C701      1.0  0.78522  0.26903  0.43956  1.0000
  C   C702      1.0  0.78290  0.28146  0.46228  1.0000
  C   C703      1.0  0.79806  0.22096  0.38643  1.0000
  C   C704      1.0  0.77904  0.27971  0.44805  1.0000
  N   N169      1.0  0.83149  0.20391  0.45090  1.0000
  N   N170      1.0  0.84247  0.20535  0.47303  1.0000
  N   N171      1.0  0.82826  0.22609  0.46926  1.0000
  N   N172      1.0  0.82914  0.19886  0.42634  1.0000
  N   N173      1.0  0.81501  0.24823  0.47517  1.0000
  N   N174      1.0  0.81266  0.24318  0.45060  1.0000
  N   N175      1.0  0.81589  0.22100  0.43225  1.0000
  N   N176      1.0  0.80168  0.24174  0.42847  1.0000
  Zn  Zn22      1.0  0.82208  0.22355  0.45075  1.0000
  Br  Br353     1.0  0.76364  0.10751  0.94924  1.0000
  Br  Br354     1.0  0.76915  0.12360  0.97917  1.0000
  Br  Br355     1.0  0.76427  0.15769  0.98145  1.0000
  Br  Br356     1.0  0.75263  0.17542  0.95498  1.0000
  Br  Br357     1.0  0.74718  0.19679  0.93197  1.0000
  Br  Br358     1.0  0.74342  0.22755  0.91678  1.0000
  Br  Br359     1.0  0.74111  0.22940  0.88235  1.0000
  Br  Br360     1.0  0.74070  0.20093  0.86332  1.0000
  Br  Br361     1.0  0.75620  0.08590  0.92617  1.0000
  Br  Br362     1.0  0.73327  0.17931  0.84025  1.0000
  Br  Br363     1.0  0.74973  0.09004  0.85753  1.0000
  Br  Br364     1.0  0.75580  0.05742  0.90714  1.0000
  Br  Br365     1.0  0.74428  0.11141  0.83451  1.0000
  Br  Br366     1.0  0.72776  0.16322  0.81032  1.0000
  Br  Br367     1.0  0.75349  0.05928  0.87271  1.0000
  Br  Br368     1.0  0.73264  0.12914  0.80804  1.0000
  C   C705      1.0  0.74999  0.15372  0.92546  1.0000
  C   C706      1.0  0.74699  0.17128  0.90807  1.0000
  C   C707      1.0  0.74411  0.17173  0.88442  1.0000
  C   C708      1.0  0.75271  0.13094  0.92428  1.0000
  C   C709      1.0  0.75423  0.14938  0.93962  1.0000
  C   C710      1.0  0.75603  0.13470  0.93888  1.0000
  C   C711      1.0  0.76024  0.12673  0.95059  1.0000
  C   C712      1.0  0.76293  0.13379  0.96344  1.0000
  C   C713      1.0  0.76104  0.14851  0.96424  1.0000
  C   C714      1.0  0.75665  0.15645  0.95233  1.0000
  C   C715      1.0  0.74450  0.18583  0.90420  1.0000
  C   C716      1.0  0.74475  0.19778  0.91266  1.0000
  C   C717      1.0  0.74322  0.21098  0.90602  1.0000
  C   C718      1.0  0.74215  0.21171  0.89116  1.0000
  C   C719      1.0  0.74134  0.19932  0.88281  1.0000
  C   C720      1.0  0.74269  0.18621  0.88949  1.0000
  C   C721      1.0  0.75280  0.11509  0.90507  1.0000
  C   C722      1.0  0.74420  0.15589  0.86521  1.0000
  C   C723      1.0  0.75422  0.10062  0.90000  1.0000
  C   C724      1.0  0.74692  0.13310  0.86403  1.0000
  C   C725      1.0  0.74992  0.11554  0.88142  1.0000
  C   C726      1.0  0.74088  0.15213  0.85061  1.0000
  C   C727      1.0  0.75241  0.10100  0.88529  1.0000
  C   C728      1.0  0.75557  0.08751  0.90668  1.0000
  C   C729      1.0  0.74268  0.13744  0.84987  1.0000
  C   C730      1.0  0.73667  0.16010  0.83891  1.0000
  C   C731      1.0  0.75216  0.08905  0.87683  1.0000
  C   C732      1.0  0.75475  0.07511  0.89833  1.0000
  C   C733      1.0  0.74026  0.13038  0.83716  1.0000
  C   C734      1.0  0.73397  0.15303  0.82605  1.0000
  C   C735      1.0  0.75369  0.07584  0.88347  1.0000
  C   C736      1.0  0.73587  0.13832  0.82525  1.0000
  N   N177      1.0  0.74852  0.14252  0.91650  1.0000
  N   N178      1.0  0.74918  0.16683  0.92110  1.0000
  N   N179      1.0  0.74705  0.16300  0.89605  1.0000
  N   N180      1.0  0.75457  0.11819  0.91886  1.0000
  N   N181      1.0  0.74234  0.16864  0.87063  1.0000
  N   N182      1.0  0.74839  0.14430  0.87299  1.0000
  N   N183      1.0  0.74986  0.12383  0.89344  1.0000
  N   N184      1.0  0.74773  0.11999  0.86839  1.0000
  Zn  Zn23      1.0  0.74845  0.14341  0.89475  1.0000
  Br  Br369     1.0  0.09916  0.54237  0.98827  1.0000
  Br  Br370     1.0  0.13221  0.55184  0.98994  1.0000
  Br  Br371     1.0  0.15701  0.52791  0.98804  1.0000
  Br  Br372     1.0  0.14934  0.49525  0.98300  1.0000
  Br  Br373     1.0  0.14705  0.46347  0.98377  1.0000
  Br  Br374     1.0  0.15700  0.43048  0.98571  1.0000
  Br  Br375     1.0  0.13323  0.40571  0.98969  1.0000
  Br  Br376     1.0  0.09986  0.41340  0.98990  1.0000
  Br  Br377     1.0  0.06714  0.54109  0.98296  1.0000
  Br  Br378     1.0  0.06784  0.41212  0.98460  1.0000
  Br  Br379     1.0  0.01995  0.49102  0.98910  1.0000
  Br  Br380     1.0  0.03377  0.54879  0.98318  1.0000
  Br  Br381     1.0  0.01766  0.45924  0.98987  1.0000
  Br  Br382     1.0  0.03479  0.40266  0.98292  1.0000
  Br  Br383     1.0  0.01001  0.52401  0.98715  1.0000
  Br  Br384     1.0  0.00999  0.42658  0.98483  1.0000
  C   C737      1.0  0.11290  0.49064  0.98352  1.0000
  C   C738      1.0  0.11222  0.46582  0.98533  1.0000
  C   C739      1.0  0.09525  0.44915  0.98672  1.0000
  C   C740      1.0  0.09654  0.50676  0.98420  1.0000
  C   C741      1.0  0.12042  0.50403  0.98476  1.0000
  C   C742      1.0  0.10989  0.51444  0.98525  1.0000
  C   C743      1.0  0.11314  0.52879  0.98655  1.0000
  C   C744      1.0  0.12746  0.53281  0.98760  1.0000
  C   C745      1.0  0.13805  0.52240  0.98702  1.0000
  C   C746      1.0  0.13461  0.50789  0.98558  1.0000
  C   C747      1.0  0.11927  0.45230  0.98497  1.0000
  C   C748      1.0  0.13362  0.44939  0.98488  1.0000
  C   C749      1.0  0.13781  0.43517  0.98582  1.0000
  C   C750      1.0  0.12750  0.42451  0.98746  1.0000
  C   C751      1.0  0.11289  0.42770  0.98694  1.0000
  C   C752      1.0  0.10878  0.44185  0.98583  1.0000
  C   C753      1.0  0.07175  0.50534  0.98615  1.0000
  C   C754      1.0  0.07046  0.44773  0.98866  1.0000
  C   C755      1.0  0.05822  0.51264  0.98704  1.0000
  C   C756      1.0  0.05410  0.46385  0.98934  1.0000
  C   C757      1.0  0.05479  0.48867  0.98753  1.0000
  C   C758      1.0  0.05711  0.44006  0.98762  1.0000
  C   C759      1.0  0.04773  0.50220  0.98789  1.0000
  C   C760      1.0  0.05412  0.52679  0.98592  1.0000
  C   C761      1.0  0.04658  0.45046  0.98810  1.0000
  C   C762      1.0  0.05387  0.42570  0.98632  1.0000
  C   C763      1.0  0.03338  0.50510  0.98799  1.0000
  C   C764      1.0  0.03950  0.52998  0.98541  1.0000
  C   C765      1.0  0.03239  0.44660  0.98729  1.0000
  C   C766      1.0  0.03954  0.42168  0.98526  1.0000
  C   C767      1.0  0.02919  0.51932  0.98705  1.0000
  C   C768      1.0  0.02896  0.43209  0.98585  1.0000
  N   N185      1.0  0.09862  0.49243  0.98258  1.0000
  N   N186      1.0  0.11872  0.47814  0.98476  1.0000
  N   N187      1.0  0.09783  0.46376  0.98671  1.0000
  N   N188      1.0  0.08397  0.51266  0.98576  1.0000
  N   N189      1.0  0.08304  0.44183  0.98711  1.0000
  N   N190      1.0  0.06838  0.46206  0.99029  1.0000
  N   N191      1.0  0.06917  0.49073  0.98615  1.0000
  N   N192      1.0  0.04829  0.47636  0.98811  1.0000
  Zn  Zn24      1.0  0.08350  0.47725  0.98643  1.0000
  Br  Br385     1.0  0.08897  0.24869  0.16555  1.0000
  Br  Br386     1.0  0.08586  0.26242  0.19696  1.0000
  Br  Br387     1.0  0.10776  0.25314  0.22197  1.0000
  Br  Br388     1.0  0.13333  0.23177  0.21566  1.0000
  Br  Br389     1.0  0.15507  0.20845  0.21607  1.0000
  Br  Br390     1.0  0.17861  0.18656  0.22860  1.0000
  Br  Br391     1.0  0.19006  0.16065  0.20880  1.0000
  Br  Br392     1.0  0.17962  0.15757  0.17633  1.0000
  Br  Br393     1.0  0.08891  0.24337  0.13351  1.0000
  Br  Br394     1.0  0.17956  0.15225  0.14429  1.0000
  Br  Br395     1.0  0.11346  0.19248  0.09377  1.0000
  Br  Br396     1.0  0.07847  0.24029  0.10104  1.0000
  Br  Br397     1.0  0.13519  0.16917  0.09417  1.0000
  Br  Br398     1.0  0.18267  0.13851  0.11288  1.0000
  Br  Br399     1.0  0.08991  0.21438  0.08124  1.0000
  Br  Br400     1.0  0.16077  0.14779  0.08787  1.0000
  C   C769      1.0  0.13099  0.21911  0.18126  1.0000
  C   C770      1.0  0.14729  0.20037  0.18297  1.0000
  C   C771      1.0  0.15573  0.18356  0.16835  1.0000
  C   C772      1.0  0.11670  0.22585  0.16458  1.0000
  C   C773      1.0  0.12171  0.22952  0.18780  1.0000
  C   C774      1.0  0.11245  0.23385  0.17708  1.0000
  C   C775      1.0  0.10182  0.24383  0.17947  1.0000
  C   C776      1.0  0.10031  0.24950  0.19319  1.0000
  C   C777      1.0  0.10964  0.24525  0.20394  1.0000
  C   C778      1.0  0.12045  0.23521  0.20134  1.0000
  C   C779      1.0  0.15817  0.19291  0.19064  1.0000
  C   C780      1.0  0.16237  0.19452  0.20457  1.0000
  C   C781      1.0  0.17244  0.18499  0.20990  1.0000
  C   C782      1.0  0.17739  0.17386  0.20128  1.0000
  C   C783      1.0  0.17337  0.17280  0.18691  1.0000
  C   C784      1.0  0.16349  0.18242  0.18161  1.0000
  C   C785      1.0  0.11279  0.21738  0.14149  1.0000
  C   C786      1.0  0.15182  0.17509  0.14526  1.0000
  C   C787      1.0  0.10503  0.21852  0.12823  1.0000
  C   C788      1.0  0.13753  0.18183  0.12858  1.0000
  C   C789      1.0  0.12124  0.20057  0.12687  1.0000
  C   C790      1.0  0.15607  0.16709  0.13276  1.0000
  C   C791      1.0  0.11036  0.20803  0.11920  1.0000
  C   C792      1.0  0.09515  0.22814  0.12293  1.0000
  C   C793      1.0  0.14682  0.17142  0.12203  1.0000
  C   C794      1.0  0.16670  0.15711  0.13036  1.0000
  C   C795      1.0  0.10616  0.20642  0.10527  1.0000
  C   C796      1.0  0.09114  0.22707  0.10855  1.0000
  C   C797      1.0  0.14808  0.16573  0.10850  1.0000
  C   C798      1.0  0.16822  0.15143  0.11665  1.0000
  C   C799      1.0  0.09609  0.21595  0.09993  1.0000
  C   C800      1.0  0.15889  0.15569  0.10590  1.0000
  N   N193      1.0  0.12831  0.21744  0.16719  1.0000
  N   N194      1.0  0.13986  0.21099  0.18811  1.0000
  N   N195      1.0  0.14572  0.19442  0.16973  1.0000
  N   N196      1.0  0.10962  0.22581  0.15253  1.0000
  N   N197      1.0  0.15891  0.17513  0.15731  1.0000
  N   N198      1.0  0.14022  0.18350  0.14264  1.0000
  N   N199      1.0  0.12280  0.20652  0.14011  1.0000
  N   N200      1.0  0.12866  0.18995  0.12173  1.0000
  Zn  Zn25      1.0  0.13426  0.20047  0.15492  1.0000
  Br  Br401     1.0  0.64606  0.09137  0.37214  1.0000
  Br  Br402     1.0  0.66247  0.10218  0.40040  1.0000
  Br  Br403     1.0  0.66787  0.13592  0.40524  1.0000
  Br  Br404     1.0  0.65586  0.15879  0.38325  1.0000
  Br  Br405     1.0  0.65144  0.18319  0.36322  1.0000
  Br  Br406     1.0  0.65296  0.21533  0.35074  1.0000
  Br  Br407     1.0  0.64346  0.22141  0.31807  1.0000
  Br  Br408     1.0  0.63087  0.19622  0.29858  1.0000
  Br  Br409     1.0  0.62787  0.07502  0.35077  1.0000
  Br  Br410     1.0  0.61269  0.17987  0.27720  1.0000
  Br  Br411     1.0  0.60731  0.08805  0.28612  1.0000
  Br  Br412     1.0  0.61528  0.04983  0.33127  1.0000
  Br  Br413     1.0  0.60289  0.11244  0.26609  1.0000
  Br  Br414     1.0  0.59627  0.16906  0.24895  1.0000
  Br  Br415     1.0  0.60578  0.05591  0.29861  1.0000
  Br  Br416     1.0  0.59088  0.13532  0.24411  1.0000
  C   C801      1.0  0.64066  0.14182  0.35444  1.0000
  C   C802      1.0  0.63875  0.16132  0.33909  1.0000
  C   C803      1.0  0.63080  0.16504  0.31694  1.0000
  C   C804      1.0  0.63663  0.11936  0.35168  1.0000
  C   C805      1.0  0.64665  0.13503  0.36691  1.0000
  C   C806      1.0  0.64410  0.12055  0.36513  1.0000
  C   C807      1.0  0.64850  0.11055  0.37508  1.0000
  C   C808      1.0  0.65590  0.11526  0.38715  1.0000
  C   C809      1.0  0.65838  0.12979  0.38901  1.0000
  C   C810      1.0  0.65376  0.13982  0.37890  1.0000
  C   C811      1.0  0.63957  0.17635  0.33657  1.0000
  C   C812      1.0  0.64504  0.18685  0.34519  1.0000
  C   C813      1.0  0.64574  0.20063  0.33969  1.0000
  C   C814      1.0  0.64156  0.20321  0.32560  1.0000
  C   C815      1.0  0.63547  0.19241  0.31722  1.0000
  C   C816      1.0  0.63463  0.17876  0.32280  1.0000
  C   C817      1.0  0.62795  0.10620  0.33241  1.0000
  C   C818      1.0  0.62212  0.15187  0.29767  1.0000
  C   C819      1.0  0.62412  0.09247  0.32655  1.0000
  C   C820      1.0  0.61808  0.12942  0.29490  1.0000
  C   C821      1.0  0.62000  0.10992  0.31026  1.0000
  C   C822      1.0  0.61464  0.15069  0.28421  1.0000
  C   C823      1.0  0.61918  0.09489  0.31278  1.0000
  C   C824      1.0  0.62328  0.07882  0.33213  1.0000
  C   C825      1.0  0.61210  0.13620  0.28243  1.0000
  C   C826      1.0  0.61024  0.16068  0.27426  1.0000
  C   C827      1.0  0.61371  0.08439  0.30416  1.0000
  C   C828      1.0  0.61719  0.06803  0.32374  1.0000
  C   C829      1.0  0.60499  0.13141  0.27045  1.0000
  C   C830      1.0  0.60284  0.15598  0.26220  1.0000
  C   C831      1.0  0.61301  0.07061  0.30965  1.0000
  C   C832      1.0  0.60036  0.14145  0.26034  1.0000
  N   N201      1.0  0.63415  0.13241  0.34567  1.0000
  N   N202      1.0  0.64254  0.15508  0.35097  1.0000
  N   N203      1.0  0.63378  0.15464  0.32710  1.0000
  N   N204      1.0  0.63361  0.10723  0.34544  1.0000
  N   N205      1.0  0.62514  0.16401  0.30391  1.0000
  N   N206      1.0  0.62460  0.13883  0.30367  1.0000
  N   N207      1.0  0.62497  0.11659  0.32225  1.0000
  N   N208      1.0  0.61621  0.11615  0.29838  1.0000
  Zn  Zn26      1.0  0.62937  0.13562  0.32467  1.0000
  Br  Br417     1.0  0.32644  0.13151  0.71818  1.0000
  Br  Br418     1.0  0.30618  0.12067  0.69256  1.0000
  Br  Br419     1.0  0.27530  0.10703  0.69973  1.0000
  Br  Br420     1.0  0.26392  0.10553  0.73166  1.0000
  Br  Br421     1.0  0.25141  0.09714  0.75974  1.0000
  Br  Br422     1.0  0.22948  0.08297  0.78232  1.0000
  Br  Br423     1.0  0.23811  0.08133  0.81574  1.0000
  Br  Br424     1.0  0.26735  0.09520  0.82693  1.0000
  Br  Br425     1.0  0.34805  0.14743  0.73647  1.0000
  Br  Br426     1.0  0.28896  0.11112  0.84522  1.0000
  Br  Br427     1.0  0.36400  0.14549  0.80366  1.0000
  Br  Br428     1.0  0.37730  0.16131  0.74766  1.0000
  Br  Br429     1.0  0.35148  0.13710  0.83174  1.0000
  Br  Br430     1.0  0.30922  0.12197  0.87084  1.0000
  Br  Br431     1.0  0.38592  0.15966  0.78108  1.0000
  Br  Br432     1.0  0.34010  0.13561  0.86367  1.0000
  C   C833      1.0  0.29000  0.11693  0.75488  1.0000
  C   C834      1.0  0.27992  0.10890  0.77618  1.0000
  C   C835      1.0  0.28590  0.10930  0.79924  1.0000
  C   C836      1.0  0.31027  0.12654  0.74989  1.0000
  C   C837      1.0  0.29094  0.11671  0.73950  1.0000
  C   C838      1.0  0.30402  0.12286  0.73626  1.0000
  C   C839      1.0  0.30871  0.12438  0.72233  1.0000
  C   C840      1.0  0.30003  0.11936  0.71128  1.0000
  C   C841      1.0  0.28686  0.11328  0.71450  1.0000
  C   C842      1.0  0.28218  0.11191  0.72866  1.0000
  C   C843      1.0  0.26813  0.10306  0.78390  1.0000
  C   C844      1.0  0.25574  0.09720  0.77874  1.0000
  C   C845      1.0  0.24641  0.09104  0.78852  1.0000
  C   C846      1.0  0.25016  0.09042  0.80295  1.0000
  C   C847      1.0  0.26260  0.09700  0.80803  1.0000
  C   C848      1.0  0.27176  0.10327  0.79828  1.0000
  C   C849      1.0  0.32950  0.13333  0.76416  1.0000
  C   C850      1.0  0.30514  0.11610  0.81351  1.0000
  C   C851      1.0  0.34365  0.13936  0.76512  1.0000
  C   C852      1.0  0.32541  0.12570  0.80852  1.0000
  C   C853      1.0  0.33548  0.13373  0.78722  1.0000
  C   C854      1.0  0.31139  0.11978  0.82714  1.0000
  C   C855      1.0  0.34728  0.13957  0.77950  1.0000
  C   C856      1.0  0.35280  0.14563  0.75537  1.0000
  C   C857      1.0  0.32447  0.12592  0.82390  1.0000
  C   C858      1.0  0.30670  0.11825  0.84107  1.0000
  C   C859      1.0  0.35966  0.14543  0.78466  1.0000
  C   C860      1.0  0.36525  0.15221  0.76045  1.0000
  C   C861      1.0  0.33322  0.13072  0.83474  1.0000
  C   C862      1.0  0.31537  0.12327  0.85212  1.0000
  C   C863      1.0  0.36900  0.15159  0.77488  1.0000
  C   C864      1.0  0.32854  0.12935  0.84890  1.0000
  N   N209      1.0  0.30135  0.12339  0.76098  1.0000
  N   N210      1.0  0.28034  0.11038  0.76232  1.0000
  N   N211      1.0  0.29063  0.11229  0.78550  1.0000
  N   N212      1.0  0.32332  0.13126  0.75150  1.0000
  N   N213      1.0  0.29208  0.11138  0.81191  1.0000
  N   N214      1.0  0.31405  0.11924  0.80242  1.0000
  N   N215      1.0  0.32477  0.13034  0.77790  1.0000
  N   N216      1.0  0.33506  0.13225  0.80107  1.0000
  Zn  Zn27      1.0  0.30770  0.12132  0.78170  1.0000
  Br  Br433     1.0  0.83099  0.46330  0.76212  1.0000
  Br  Br434     1.0  0.84421  0.43751  0.74355  1.0000
  Br  Br435     1.0  0.86992  0.41848  0.75650  1.0000
  Br  Br436     1.0  0.88141  0.42385  0.78797  1.0000
  Br  Br437     1.0  0.89887  0.42843  0.81423  1.0000
  Br  Br438     1.0  0.92428  0.42414  0.83720  1.0000
  Br  Br439     1.0  0.92829  0.44714  0.86268  1.0000
  Br  Br440     1.0  0.90626  0.47309  0.86640  1.0000
  Br  Br441     1.0  0.81138  0.48548  0.77548  1.0000
  Br  Br442     1.0  0.88665  0.49527  0.87976  1.0000
  Br  Br443     1.0  0.81877  0.53014  0.82765  1.0000
  Br  Br444     1.0  0.78935  0.51143  0.77921  1.0000
  Br  Br445     1.0  0.83624  0.53472  0.85391  1.0000
  Br  Br446     1.0  0.87344  0.52106  0.89833  1.0000
  Br  Br447     1.0  0.79337  0.53443  0.80468  1.0000
  Br  Br448     1.0  0.84772  0.54009  0.88538  1.0000
  C   C865      1.0  0.86498  0.45330  0.80252  1.0000
  C   C866      1.0  0.87996  0.45675  0.82211  1.0000
  C   C867      1.0  0.88134  0.47221  0.84018  1.0000
  C   C868      1.0  0.84746  0.46548  0.79399  1.0000
  C   C869      1.0  0.86209  0.44714  0.78870  1.0000
  C   C870      1.0  0.85083  0.45501  0.78316  1.0000
  C   C871      1.0  0.84514  0.45219  0.76981  1.0000
  C   C872      1.0  0.85112  0.44122  0.76167  1.0000
  C   C873      1.0  0.86235  0.43325  0.76725  1.0000
  C   C874      1.0  0.86794  0.43614  0.78084  1.0000
  C   C875      1.0  0.89124  0.45193  0.83118  1.0000
  C   C876      1.0  0.90048  0.44074  0.82925  1.0000
  C   C877      1.0  0.91144  0.43903  0.83913  1.0000
  C   C878      1.0  0.91308  0.44895  0.85015  1.0000
  C   C879      1.0  0.90316  0.45996  0.85223  1.0000
  C   C880      1.0  0.89217  0.46150  0.84248  1.0000
  C   C881      1.0  0.83630  0.48636  0.80170  1.0000
  C   C882      1.0  0.87018  0.49309  0.84789  1.0000
  C   C883      1.0  0.82547  0.49707  0.79940  1.0000
  C   C884      1.0  0.85266  0.50527  0.83936  1.0000
  C   C885      1.0  0.83768  0.50182  0.81978  1.0000
  C   C886      1.0  0.86682  0.50356  0.85872  1.0000
  C   C887      1.0  0.82640  0.50664  0.81070  1.0000
  C   C888      1.0  0.81449  0.49861  0.78965  1.0000
  C   C889      1.0  0.85556  0.51143  0.85318  1.0000
  C   C890      1.0  0.87251  0.50638  0.87207  1.0000
  C   C891      1.0  0.81716  0.51783  0.81263  1.0000
  C   C892      1.0  0.80456  0.50962  0.79173  1.0000
  C   C893      1.0  0.84971  0.52243  0.86104  1.0000
  C   C894      1.0  0.86653  0.51736  0.88021  1.0000
  C   C895      1.0  0.80620  0.51954  0.80275  1.0000
  C   C896      1.0  0.85529  0.52532  0.87463  1.0000
  N   N217      1.0  0.85577  0.46389  0.80585  1.0000
  N   N218      1.0  0.87601  0.45037  0.81036  1.0000
  N   N219      1.0  0.87435  0.46911  0.82747  1.0000
  N   N220      1.0  0.83836  0.47594  0.79222  1.0000
  N   N221      1.0  0.87929  0.48263  0.84967  1.0000
  N   N222      1.0  0.86187  0.49468  0.83603  1.0000
  N   N223      1.0  0.84330  0.48947  0.81441  1.0000
  N   N224      1.0  0.84163  0.50820  0.83152  1.0000
  Zn  Zn28      1.0  0.85882  0.47928  0.82094  1.0000
  Br  Br449     1.0  0.56050  0.78961  0.54288  1.0000
  Br  Br450     1.0  0.54758  0.81734  0.55866  1.0000
  Br  Br451     1.0  0.56892  0.84088  0.57213  1.0000
  Br  Br452     1.0  0.60254  0.83788  0.56873  1.0000
  Br  Br453     1.0  0.63413  0.83675  0.57280  1.0000
  Br  Br454     1.0  0.66554  0.84579  0.58386  1.0000
  Br  Br455     1.0  0.69206  0.82405  0.57955  1.0000
  Br  Br456     1.0  0.68783  0.79445  0.56284  1.0000
  Br  Br457     1.0  0.56559  0.76422  0.52328  1.0000
  Br  Br458     1.0  0.69292  0.76906  0.54324  1.0000
  Br  Br459     1.0  0.61929  0.72192  0.51332  1.0000
  Br  Br460     1.0  0.56136  0.73462  0.50657  1.0000
  Br  Br461     1.0  0.65088  0.72079  0.51739  1.0000
  Br  Br462     1.0  0.70583  0.74133  0.52746  1.0000
  Br  Br463     1.0  0.58787  0.71288  0.50226  1.0000
  Br  Br464     1.0  0.68450  0.71779  0.51399  1.0000
  C   C897      1.0  0.61077  0.80594  0.55257  1.0000
  C   C898      1.0  0.63520  0.80543  0.55732  1.0000
  C   C899      1.0  0.65327  0.79057  0.55284  1.0000
  C   C900      1.0  0.59642  0.79067  0.54313  1.0000
  C   C901      1.0  0.59662  0.81139  0.55532  1.0000
  C   C902      1.0  0.58735  0.80154  0.54928  1.0000
  C   C903      1.0  0.57268  0.80319  0.54992  1.0000
  C   C904      1.0  0.56713  0.81506  0.55706  1.0000
  C   C905      1.0  0.57641  0.82500  0.56304  1.0000
  C   C906      1.0  0.59126  0.82326  0.56221  1.0000
  C   C907      1.0  0.64789  0.81230  0.56226  1.0000
  C   C908      1.0  0.64931  0.82501  0.56939  1.0000
  C   C909      1.0  0.66285  0.82878  0.57420  1.0000
  C   C910      1.0  0.67427  0.81938  0.57224  1.0000
  C   C911      1.0  0.67266  0.80672  0.56442  1.0000
  C   C912      1.0  0.65921  0.80312  0.55951  1.0000
  C   C913      1.0  0.60014  0.76810  0.53328  1.0000
  C   C914      1.0  0.65700  0.76800  0.54299  1.0000
  C   C915      1.0  0.59421  0.75555  0.52661  1.0000
  C   C916      1.0  0.64265  0.75274  0.53355  1.0000
  C   C917      1.0  0.61822  0.75324  0.52880  1.0000
  C   C918      1.0  0.66607  0.75713  0.53684  1.0000
  C   C919      1.0  0.60552  0.74637  0.52386  1.0000
  C   C920      1.0  0.58075  0.75195  0.52170  1.0000
  C   C921      1.0  0.65680  0.74728  0.53080  1.0000
  C   C922      1.0  0.68074  0.75548  0.53620  1.0000
  C   C923      1.0  0.60411  0.73366  0.51673  1.0000
  C   C924      1.0  0.57914  0.73929  0.51387  1.0000
  C   C925      1.0  0.66215  0.73541  0.52391  1.0000
  C   C926      1.0  0.68628  0.74361  0.52906  1.0000
  C   C927      1.0  0.59057  0.72990  0.51192  1.0000
  C   C928      1.0  0.67700  0.73367  0.52308  1.0000
  N   N225      1.0  0.61055  0.79383  0.54473  1.0000
  N   N226      1.0  0.62241  0.81091  0.55816  1.0000
  N   N227      1.0  0.63855  0.79226  0.55200  1.0000
  N   N228      1.0  0.59170  0.77869  0.53769  1.0000
  N   N229      1.0  0.66172  0.77998  0.54843  1.0000
  N   N230      1.0  0.64287  0.76484  0.54139  1.0000
  N   N231      1.0  0.61486  0.76641  0.53412  1.0000
  N   N232      1.0  0.63101  0.74776  0.52795  1.0000
  Zn  Zn29      1.0  0.62671  0.77934  0.54306  1.0000
  Br  Br465     1.0  0.07285  0.70753  0.81391  1.0000
  Br  Br466     1.0  0.08442  0.67866  0.82868  1.0000
  Br  Br467     1.0  0.09102  0.65092  0.80924  1.0000
  Br  Br468     1.0  0.08773  0.65213  0.77550  1.0000
  Br  Br469     1.0  0.08112  0.64676  0.74478  1.0000
  Br  Br470     1.0  0.07751  0.62947  0.71513  1.0000
  Br  Br471     1.0  0.06153  0.64452  0.68844  1.0000
  Br  Br472     1.0  0.05087  0.67700  0.69054  1.0000
  Br  Br473     1.0  0.06632  0.73843  0.80635  1.0000
  Br  Br474     1.0  0.04433  0.70790  0.68298  1.0000
  Br  Br475     1.0  0.03607  0.76866  0.75211  1.0000
  Br  Br476     1.0  0.05565  0.77090  0.80844  1.0000
  Br  Br477     1.0  0.02945  0.76330  0.72139  1.0000
  Br  Br478     1.0  0.03277  0.73677  0.66821  1.0000
  Br  Br479     1.0  0.03967  0.78596  0.78175  1.0000
  Br  Br480     1.0  0.02616  0.76450  0.68765  1.0000
  C   C929      1.0  0.07374  0.68454  0.76535  1.0000
  C   C930      1.0  0.06784  0.67896  0.74182  1.0000
  C   C931      1.0  0.05793  0.69039  0.72341  1.0000
  C   C932      1.0  0.06996  0.70310  0.77837  1.0000
  C   C933      1.0  0.07738  0.68027  0.77970  1.0000
  C   C934      1.0  0.07491  0.69220  0.78812  1.0000
  C   C935      1.0  0.07716  0.69207  0.80272  1.0000
  C   C936      1.0  0.08185  0.67944  0.80912  1.0000
  C   C937      1.0  0.08443  0.66748  0.80068  1.0000
  C   C938      1.0  0.08223  0.66779  0.78587  1.0000
  C   C939      1.0  0.06847  0.66948  0.72988  1.0000
  C   C940      1.0  0.07312  0.65560  0.72937  1.0000
  C   C941      1.0  0.07144  0.64821  0.71659  1.0000
  C   C942      1.0  0.06460  0.65479  0.70508  1.0000
  C   C943      1.0  0.06047  0.66916  0.70569  1.0000
  C   C944      1.0  0.06233  0.67651  0.71836  1.0000
  C   C945      1.0  0.05925  0.72504  0.77348  1.0000
  C   C946      1.0  0.04722  0.71233  0.71852  1.0000
  C   C947      1.0  0.05486  0.73891  0.77853  1.0000
  C   C948      1.0  0.04345  0.73089  0.73154  1.0000
  C   C949      1.0  0.04935  0.73647  0.75507  1.0000
  C   C950      1.0  0.04227  0.72323  0.70877  1.0000
  C   C951      1.0  0.04871  0.74595  0.76701  1.0000
  C   C952      1.0  0.05672  0.74627  0.79120  1.0000
  C   C953      1.0  0.03980  0.73516  0.71719  1.0000
  C   C954      1.0  0.04003  0.72336  0.69417  1.0000
  C   C955      1.0  0.04406  0.75982  0.76752  1.0000
  C   C956      1.0  0.05259  0.76064  0.79181  1.0000
  C   C957      1.0  0.03496  0.74763  0.71102  1.0000
  C   C958      1.0  0.03533  0.73599  0.68777  1.0000
  C   C959      1.0  0.04574  0.76722  0.78029  1.0000
  C   C960      1.0  0.03275  0.74794  0.69621  1.0000
  N   N233      1.0  0.06989  0.69842  0.76457  1.0000
  N   N234      1.0  0.07262  0.67594  0.75456  1.0000
  N   N235      1.0  0.06119  0.69133  0.73786  1.0000
  N   N236      1.0  0.06507  0.71556  0.78238  1.0000
  N   N237      1.0  0.05211  0.69987  0.71451  1.0000
  N   N238      1.0  0.04730  0.71701  0.73232  1.0000
  N   N239      1.0  0.05599  0.72409  0.75903  1.0000
  N   N240      1.0  0.04456  0.73949  0.74233  1.0000
  Zn  Zn30      1.0  0.05859  0.70771  0.74844  1.0000
  Br  Br481     1.0  0.82177  0.74950  0.72976  1.0000
  Br  Br482     1.0  0.84919  0.73544  0.71443  1.0000
  Br  Br483     1.0  0.86311  0.70660  0.72731  1.0000
  Br  Br484     1.0  0.84922  0.69100  0.75404  1.0000
  Br  Br485     1.0  0.84323  0.67604  0.78155  1.0000
  Br  Br486     1.0  0.84705  0.65372  0.80758  1.0000
  Br  Br487     1.0  0.82795  0.65740  0.83615  1.0000
  Br  Br488     1.0  0.80406  0.68186  0.83814  1.0000
  Br  Br489     1.0  0.79403  0.76512  0.73621  1.0000
  Br  Br490     1.0  0.77632  0.69748  0.84459  1.0000
  Br  Br491     1.0  0.75485  0.77094  0.79280  1.0000
  Br  Br492     1.0  0.77014  0.78958  0.73820  1.0000
  Br  Br493     1.0  0.74887  0.75598  0.82030  1.0000
  Br  Br494     1.0  0.74890  0.71154  0.85991  1.0000
  Br  Br495     1.0  0.75104  0.79326  0.76676  1.0000
  Br  Br496     1.0  0.73498  0.74038  0.84703  1.0000
  C   C961      1.0  0.82137  0.71099  0.76723  1.0000
  C   C962      1.0  0.81830  0.69936  0.78903  1.0000
  C   C963      1.0  0.80389  0.70167  0.80786  1.0000
  C   C964      1.0  0.81187  0.72986  0.75817  1.0000
  C   C965      1.0  0.82984  0.71425  0.75478  1.0000
  C   C966      1.0  0.82376  0.72643  0.74894  1.0000
  C   C967      1.0  0.82919  0.73282  0.73678  1.0000
  C   C968      1.0  0.84127  0.72687  0.73037  1.0000
  C   C969      1.0  0.84733  0.71460  0.73614  1.0000
  C   C970      1.0  0.84165  0.70816  0.74841  1.0000
  C   C971      1.0  0.82137  0.68771  0.79839  1.0000
  C   C972      1.0  0.83171  0.67741  0.79719  1.0000
  C   C973      1.0  0.83334  0.66791  0.80849  1.0000
  C   C974      1.0  0.82502  0.66951  0.82077  1.0000
  C   C975      1.0  0.81414  0.67976  0.82149  1.0000
  C   C976      1.0  0.81244  0.68906  0.81015  1.0000
  C   C977      1.0  0.79420  0.74531  0.76649  1.0000
  C   C978      1.0  0.78622  0.71712  0.81617  1.0000
  C   C979      1.0  0.78565  0.75791  0.76419  1.0000
  C   C980      1.0  0.77672  0.73598  0.80711  1.0000
  C   C981      1.0  0.77979  0.74762  0.78532  1.0000
  C   C982      1.0  0.77433  0.72055  0.82540  1.0000
  C   C983      1.0  0.77672  0.75927  0.77596  1.0000
  C   C984      1.0  0.78395  0.76722  0.75285  1.0000
  C   C985      1.0  0.76825  0.73273  0.81957  1.0000
  C   C986      1.0  0.76890  0.71416  0.83757  1.0000
  C   C987      1.0  0.76638  0.76957  0.77715  1.0000
  C   C988      1.0  0.77307  0.77747  0.75358  1.0000
  C   C989      1.0  0.75644  0.73882  0.82593  1.0000
  C   C990      1.0  0.75682  0.72011  0.84398  1.0000
  C   C991      1.0  0.76475  0.77907  0.76585  1.0000
  C   C992      1.0  0.75076  0.73238  0.83820  1.0000
  N   N241      1.0  0.81026  0.72005  0.76883  1.0000
  N   N242      1.0  0.82468  0.70159  0.77683  1.0000
  N   N243      1.0  0.80802  0.70783  0.79500  1.0000
  N   N244      1.0  0.80426  0.74153  0.75713  1.0000
  N   N245      1.0  0.79383  0.70545  0.81722  1.0000
  N   N246      1.0  0.78782  0.72693  0.80551  1.0000
  N   N247      1.0  0.79007  0.73915  0.77934  1.0000
  N   N248      1.0  0.77341  0.74539  0.79751  1.0000
  Zn  Zn31      1.0  0.79904  0.72349  0.78717  1.0000
  Br  Br497     1.0  0.38538  0.69298  0.43353  1.0000
  Br  Br498     1.0  0.35409  0.69176  0.41923  1.0000
  Br  Br499     1.0  0.34726  0.66823  0.39493  1.0000
  Br  Br500     1.0  0.37052  0.64522  0.38595  1.0000
  Br  Br501     1.0  0.39029  0.62549  0.37060  1.0000
  Br  Br502     1.0  0.40125  0.60261  0.34721  1.0000
  Br  Br503     1.0  0.43496  0.59536  0.34493  1.0000
  Br  Br504     1.0  0.45733  0.60927  0.36682  1.0000
  Br  Br505     1.0  0.41044  0.69674  0.45384  1.0000
  Br  Br506     1.0  0.48239  0.61303  0.38713  1.0000
  Br  Br507     1.0  0.47748  0.68052  0.45005  1.0000
  Br  Br508     1.0  0.43281  0.71066  0.47572  1.0000
  Br  Br509     1.0  0.49725  0.66080  0.43470  1.0000
  Br  Br510     1.0  0.51368  0.61426  0.40142  1.0000
  Br  Br511     1.0  0.46652  0.70341  0.47345  1.0000
  Br  Br512     1.0  0.52051  0.63779  0.42573  1.0000
  C   C993      1.0  0.40228  0.65207  0.40307  1.0000
  C   C994      1.0  0.41712  0.63723  0.38968  1.0000
  C   C995      1.0  0.44029  0.63170  0.38954  1.0000
  C   C996      1.0  0.40647  0.66741  0.41967  1.0000
  C   C997      1.0  0.38907  0.65978  0.40493  1.0000
  C   C998      1.0  0.39176  0.66970  0.41559  1.0000
  C   C999      1.0  0.38143  0.67921  0.42022  1.0000
  C   C1000     1.0  0.36799  0.67885  0.41376  1.0000
  C   C1001     1.0  0.36524  0.66884  0.40313  1.0000
  C   C1002     1.0  0.37577  0.65919  0.39862  1.0000
  C   C1003     1.0  0.41897  0.62626  0.37924  1.0000
  C   C1004     1.0  0.40913  0.62054  0.37004  1.0000
  C   C1005     1.0  0.41395  0.61077  0.35994  1.0000
  C   C1006     1.0  0.42851  0.60763  0.35905  1.0000
  C   C1007     1.0  0.43827  0.61317  0.36895  1.0000
  C   C1008     1.0  0.43338  0.62274  0.37909  1.0000
  C   C1009     1.0  0.42747  0.67432  0.43112  1.0000
  C   C1010     1.0  0.46130  0.63861  0.40099  1.0000
  C   C1011     1.0  0.43439  0.68328  0.44157  1.0000
  C   C1012     1.0  0.46548  0.65395  0.41758  1.0000
  C   C1013     1.0  0.45065  0.66878  0.43098  1.0000
  C   C1014     1.0  0.47601  0.63631  0.40507  1.0000
  C   C1015     1.0  0.44879  0.67976  0.44141  1.0000
  C   C1016     1.0  0.42950  0.69285  0.45170  1.0000
  C   C1017     1.0  0.47870  0.64624  0.41573  1.0000
  C   C1018     1.0  0.48634  0.62681  0.40044  1.0000
  C   C1019     1.0  0.45864  0.68548  0.45062  1.0000
  C   C1020     1.0  0.43926  0.69839  0.46161  1.0000
  C   C1021     1.0  0.49200  0.64683  0.42204  1.0000
  C   C1022     1.0  0.49978  0.62717  0.40690  1.0000
  C   C1023     1.0  0.45381  0.69524  0.46072  1.0000
  C   C1024     1.0  0.50253  0.63718  0.41753  1.0000
  N   N249      1.0  0.41246  0.65631  0.41237  1.0000
  N   N250      1.0  0.40491  0.64322  0.39276  1.0000
  N   N251      1.0  0.43006  0.64061  0.39553  1.0000
  N   N252      1.0  0.41355  0.67566  0.42844  1.0000
  N   N253      1.0  0.45422  0.63035  0.39221  1.0000
  N   N254      1.0  0.45531  0.64971  0.40829  1.0000
  N   N255      1.0  0.43771  0.66540  0.42512  1.0000
  N   N256      1.0  0.46285  0.66280  0.42790  1.0000
  Zn  Zn32      1.0  0.43388  0.65301  0.41033  1.0000
  Br  Br513     1.0  0.71958  0.40741  0.25694  1.0000
  Br  Br514     1.0  0.70763  0.38104  0.27557  1.0000
  Br  Br515     1.0  0.68457  0.35938  0.26178  1.0000
  Br  Br516     1.0  0.67459  0.36278  0.22954  1.0000
  Br  Br517     1.0  0.65842  0.36500  0.20217  1.0000
  Br  Br518     1.0  0.63496  0.35775  0.17792  1.0000
  Br  Br519     1.0  0.63045  0.37956  0.15149  1.0000
  Br  Br520     1.0  0.65024  0.40731  0.14819  1.0000
  Br  Br521     1.0  0.73789  0.43091  0.24401  1.0000
  Br  Br522     1.0  0.66856  0.43081  0.13526  1.0000
  Br  Br523     1.0  0.72971  0.47322  0.19003  1.0000
  Br  Br524     1.0  0.75769  0.45866  0.24071  1.0000
  Br  Br525     1.0  0.71354  0.47544  0.16266  1.0000
  Br  Br526     1.0  0.68050  0.45718  0.11663  1.0000
  Br  Br527     1.0  0.75317  0.48047  0.21428  1.0000
  Br  Br528     1.0  0.70356  0.47884  0.13041  1.0000
  C   C1025     1.0  0.68916  0.39320  0.21499  1.0000
  C   C1026     1.0  0.67515  0.39470  0.19446  1.0000
  C   C1027     1.0  0.67349  0.40946  0.17583  1.0000
  C   C1028     1.0  0.70495  0.40717  0.22412  1.0000
  C   C1029     1.0  0.69175  0.38772  0.22915  1.0000
  C   C1030     1.0  0.70189  0.39674  0.23508  1.0000
  C   C1031     1.0  0.70699  0.39484  0.24882  1.0000
  C   C1032     1.0  0.70153  0.38359  0.25696  1.0000
  C   C1033     1.0  0.69143  0.37447  0.25101  1.0000
  C   C1034     1.0  0.68644  0.37645  0.23702  1.0000
  C   C1035     1.0  0.66493  0.38861  0.18491  1.0000
  C   C1036     1.0  0.65663  0.37668  0.18668  1.0000
  C   C1037     1.0  0.64649  0.37370  0.17624  1.0000
  C   C1038     1.0  0.64464  0.38311  0.16481  1.0000
  C   C1039     1.0  0.65364  0.39492  0.16295  1.0000
  C   C1040     1.0  0.66383  0.39774  0.17327  1.0000
  C   C1041     1.0  0.71464  0.42876  0.21637  1.0000
  C   C1042     1.0  0.68318  0.43105  0.16808  1.0000
  C   C1043     1.0  0.72430  0.44048  0.21893  1.0000
  C   C1044     1.0  0.69897  0.44502  0.17721  1.0000
  C   C1045     1.0  0.71298  0.44352  0.19774  1.0000
  C   C1046     1.0  0.68624  0.44148  0.15712  1.0000
  C   C1047     1.0  0.72320  0.44961  0.20729  1.0000
  C   C1048     1.0  0.73449  0.44330  0.22925  1.0000
  C   C1049     1.0  0.69638  0.45050  0.16305  1.0000
  C   C1050     1.0  0.68115  0.44339  0.14338  1.0000
  C   C1051     1.0  0.73150  0.46154  0.20552  1.0000
  C   C1052     1.0  0.74349  0.45511  0.22738  1.0000
  C   C1053     1.0  0.70169  0.46177  0.15518  1.0000
  C   C1054     1.0  0.68660  0.45463  0.13524  1.0000
  C   C1055     1.0  0.74164  0.46452  0.21596  1.0000
  C   C1056     1.0  0.69671  0.46375  0.14119  1.0000
  N   N257      1.0  0.69756  0.40449  0.21185  1.0000
  N   N258      1.0  0.67894  0.38904  0.20663  1.0000
  N   N259      1.0  0.67995  0.40737  0.18903  1.0000
  N   N260      1.0  0.71296  0.41846  0.22606  1.0000
  N   N261      1.0  0.67518  0.41976  0.16613  1.0000
  N   N262      1.0  0.69057  0.43373  0.18035  1.0000
  N   N263      1.0  0.70818  0.43085  0.20317  1.0000
  N   N264      1.0  0.70920  0.44918  0.18557  1.0000
  Zn  Zn33      1.0  0.69407  0.41911  0.19610  1.0000
  Br  Br529     1.0  0.17084  0.47284  0.05893  1.0000
  Br  Br530     1.0  0.19431  0.48509  0.03693  1.0000
  Br  Br531     1.0  0.21484  0.51112  0.04651  1.0000
  Br  Br532     1.0  0.21327  0.52388  0.07790  1.0000
  Br  Br533     1.0  0.21190  0.54241  0.10381  1.0000
  Br  Br534     1.0  0.21897  0.56865  0.12507  1.0000
  Br  Br535     1.0  0.19917  0.57387  0.15290  1.0000
  Br  Br536     1.0  0.17374  0.55223  0.16054  1.0000
  Br  Br537     1.0  0.15032  0.45396  0.07558  1.0000
  Br  Br538     1.0  0.15322  0.53335  0.17720  1.0000
  Br  Br539     1.0  0.11216  0.46378  0.13232  1.0000
  Br  Br540     1.0  0.12490  0.43232  0.08322  1.0000
  Br  Br541     1.0  0.11079  0.48231  0.15822  1.0000
  Br  Br542     1.0  0.12975  0.52110  0.19919  1.0000
  Br  Br543     1.0  0.10509  0.43754  0.11106  1.0000
  Br  Br544     1.0  0.10923  0.49506  0.18962  1.0000
  C   C1057     1.0  0.18568  0.50830  0.09648  1.0000
  C   C1058     1.0  0.18464  0.52407  0.11571  1.0000
  C   C1059     1.0  0.17142  0.52629  0.13541  1.0000
  C   C1060     1.0  0.17251  0.49057  0.09015  1.0000
  C   C1061     1.0  0.19015  0.50481  0.08215  1.0000
  C   C1062     1.0  0.18164  0.49341  0.07803  1.0000
  C   C1063     1.0  0.18284  0.48718  0.06468  1.0000
  C   C1064     1.0  0.19280  0.49274  0.05507  1.0000
  C   C1065     1.0  0.20141  0.50411  0.05922  1.0000
  C   C1066     1.0  0.20017  0.51025  0.07282  1.0000
  C   C1067     1.0  0.19054  0.53565  0.12370  1.0000
  C   C1068     1.0  0.20146  0.54471  0.12009  1.0000
  C   C1069     1.0  0.20437  0.55603  0.12926  1.0000
  C   C1070     1.0  0.19582  0.55819  0.14130  1.0000
  C   C1071     1.0  0.18510  0.54845  0.14506  1.0000
  C   C1072     1.0  0.18237  0.53711  0.13600  1.0000
  C   C1073     1.0  0.15264  0.47990  0.10071  1.0000
  C   C1074     1.0  0.15156  0.51562  0.14598  1.0000
  C   C1075     1.0  0.14169  0.46908  0.10013  1.0000
  C   C1076     1.0  0.13838  0.49789  0.13965  1.0000
  C   C1077     1.0  0.13943  0.48212  0.12041  1.0000
  C   C1078     1.0  0.14242  0.51278  0.15810  1.0000
  C   C1079     1.0  0.13352  0.47054  0.11242  1.0000
  C   C1080     1.0  0.13896  0.45774  0.09107  1.0000
  C   C1081     1.0  0.13391  0.50138  0.15397  1.0000
  C   C1082     1.0  0.14123  0.51901  0.17144  1.0000
  C   C1083     1.0  0.12260  0.46148  0.11603  1.0000
  C   C1084     1.0  0.12824  0.44800  0.09483  1.0000
  C   C1085     1.0  0.12389  0.49594  0.16330  1.0000
  C   C1086     1.0  0.13126  0.51345  0.18105  1.0000
  C   C1087     1.0  0.11969  0.45016  0.10687  1.0000
  C   C1088     1.0  0.12265  0.50208  0.17691  1.0000
  N   N265      1.0  0.17552  0.49932  0.10140  1.0000
  N   N266      1.0  0.18957  0.51960  0.10346  1.0000
  N   N267      1.0  0.17297  0.51877  0.12272  1.0000
  N   N268      1.0  0.16188  0.48149  0.08998  1.0000
  N   N269      1.0  0.16218  0.52470  0.14614  1.0000
  N   N270      1.0  0.14854  0.50687  0.13473  1.0000
  N   N271      1.0  0.15109  0.48742  0.11341  1.0000
  N   N272      1.0  0.13450  0.48659  0.13266  1.0000
  Zn  Zn34      1.0  0.16203  0.50309  0.11806  1.0000
  Br  Br545     1.0  0.68273  0.52459  0.90026  1.0000
  Br  Br546     1.0  0.65850  0.53389  0.92286  1.0000
  Br  Br547     1.0  0.63653  0.55930  0.91496  1.0000
  Br  Br548     1.0  0.63748  0.57430  0.88454  1.0000
  Br  Br549     1.0  0.63788  0.59465  0.86001  1.0000
  Br  Br550     1.0  0.62938  0.62187  0.84057  1.0000
  Br  Br551     1.0  0.64897  0.63016  0.81334  1.0000
  Br  Br552     1.0  0.67564  0.61061  0.80442  1.0000
  Br  Br553     1.0  0.70438  0.50814  0.88249  1.0000
  Br  Br554     1.0  0.69729  0.59416  0.78665  1.0000
  Br  Br555     1.0  0.74214  0.52410  0.82690  1.0000
  Br  Br556     1.0  0.73105  0.48859  0.87357  1.0000
  Br  Br557     1.0  0.74254  0.54445  0.80237  1.0000
  Br  Br558     1.0  0.72152  0.58486  0.76405  1.0000
  Br  Br559     1.0  0.75063  0.49688  0.84633  1.0000
  Br  Br560     1.0  0.74349  0.55944  0.77195  1.0000
  C   C1089     1.0  0.66601  0.56168  0.86515  1.0000
  C   C1090     1.0  0.66621  0.57879  0.84708  1.0000
  C   C1091     1.0  0.67936  0.58315  0.82769  1.0000
  C   C1092     1.0  0.68016  0.54433  0.87034  1.0000
  C   C1093     1.0  0.66169  0.55694  0.87916  1.0000
  C   C1094     1.0  0.67083  0.54579  0.88255  1.0000
  C   C1095     1.0  0.66994  0.53858  0.89542  1.0000
  C   C1096     1.0  0.65964  0.54286  0.90531  1.0000
  C   C1097     1.0  0.65039  0.55399  0.90190  1.0000
  C   C1098     1.0  0.65133  0.56112  0.88877  1.0000
  C   C1099     1.0  0.65968  0.59055  0.83987  1.0000
  C   C1100     1.0  0.64824  0.59869  0.84401  1.0000
  C   C1101     1.0  0.64471  0.61044  0.83564  1.0000
  C   C1102     1.0  0.65317  0.61393  0.82385  1.0000
  C   C1103     1.0  0.66445  0.60511  0.81950  1.0000
  C   C1104     1.0  0.66780  0.59333  0.82777  1.0000
  C   C1105     1.0  0.70066  0.53560  0.85922  1.0000
  C   C1106     1.0  0.69985  0.57441  0.81657  1.0000
  C   C1107     1.0  0.71222  0.52541  0.85914  1.0000
  C   C1108     1.0  0.71401  0.55707  0.82176  1.0000
  C   C1109     1.0  0.71380  0.53996  0.83983  1.0000
  C   C1110     1.0  0.70919  0.57296  0.80436  1.0000
  C   C1111     1.0  0.72034  0.52820  0.84704  1.0000
  C   C1112     1.0  0.71556  0.51364  0.86741  1.0000
  C   C1113     1.0  0.71833  0.56181  0.80775  1.0000
  C   C1114     1.0  0.71007  0.58017  0.79149  1.0000
  C   C1115     1.0  0.73178  0.52006  0.84290  1.0000
  C   C1116     1.0  0.72685  0.50482  0.86306  1.0000
  C   C1117     1.0  0.72869  0.55762  0.79814  1.0000
  C   C1118     1.0  0.72038  0.57588  0.78160  1.0000
  C   C1119     1.0  0.73530  0.50831  0.85127  1.0000
  C   C1120     1.0  0.72962  0.56476  0.78501  1.0000
  N   N273      1.0  0.67669  0.55367  0.85970  1.0000
  N   N274      1.0  0.66150  0.57320  0.85894  1.0000
  N   N275      1.0  0.67819  0.57468  0.83982  1.0000
  N   N276      1.0  0.69130  0.53590  0.86996  1.0000
  N   N277      1.0  0.68872  0.58285  0.81695  1.0000
  N   N278      1.0  0.70333  0.56508  0.82721  1.0000
  N   N279      1.0  0.70182  0.54407  0.84709  1.0000
  N   N280      1.0  0.71852  0.54555  0.82797  1.0000
  Zn  Zn35      1.0  0.69001  0.55937  0.84345  1.0000
  Br  Br561     1.0  0.26199  0.50948  0.22407  1.0000
  Br  Br562     1.0  0.23723  0.51285  0.24774  1.0000
  Br  Br563     1.0  0.21230  0.53629  0.24324  1.0000
  Br  Br564     1.0  0.21096  0.55508  0.21503  1.0000
  Br  Br565     1.0  0.20855  0.57832  0.19335  1.0000
  Br  Br566     1.0  0.19659  0.60662  0.17763  1.0000
  Br  Br567     1.0  0.21460  0.62061  0.15167  1.0000
  Br  Br568     1.0  0.24322  0.60568  0.14023  1.0000
  Br  Br569     1.0  0.28512  0.49814  0.20429  1.0000
  Br  Br570     1.0  0.26635  0.59434  0.12045  1.0000
  Br  Br571     1.0  0.31979  0.52550  0.15117  1.0000
  Br  Br572     1.0  0.31374  0.48321  0.19285  1.0000
  Br  Br573     1.0  0.31738  0.54874  0.12949  1.0000
  Br  Br574     1.0  0.29112  0.59097  0.09679  1.0000
  Br  Br575     1.0  0.33175  0.49720  0.16689  1.0000
  Br  Br576     1.0  0.31604  0.56753  0.10128  1.0000
  C   C1121     1.0  0.24044  0.54854  0.19412  1.0000
  C   C1122     1.0  0.23833  0.56774  0.17842  1.0000
  C   C1123     1.0  0.25053  0.57609  0.15974  1.0000
  C   C1124     1.0  0.25662  0.53247  0.19698  1.0000
  C   C1125     1.0  0.23695  0.54155  0.20740  1.0000
  C   C1126     1.0  0.24739  0.53122  0.20929  1.0000
  C   C1127     1.0  0.24757  0.52236  0.22112  1.0000
  C   C1128     1.0  0.23700  0.52408  0.23150  1.0000
  C   C1129     1.0  0.22646  0.53438  0.22958  1.0000
  C   C1130     1.0  0.22633  0.54321  0.21748  1.0000
  C   C1131     1.0  0.23034  0.57947  0.17281  1.0000
  C   C1132     1.0  0.21809  0.58559  0.17799  1.0000
  C   C1133     1.0  0.21307  0.59782  0.17122  1.0000
  C   C1134     1.0  0.22085  0.60378  0.15997  1.0000
  C   C1135     1.0  0.23302  0.59699  0.15450  1.0000
  C   C1136     1.0  0.23786  0.58473  0.16116  1.0000
  C   C1137     1.0  0.27781  0.52773  0.18479  1.0000
  C   C1138     1.0  0.27172  0.57135  0.14754  1.0000
  C   C1139     1.0  0.29048  0.51909  0.18336  1.0000
  C   C1140     1.0  0.28790  0.55528  0.15041  1.0000
  C   C1141     1.0  0.29001  0.53608  0.16611  1.0000
  C   C1142     1.0  0.28095  0.57260  0.13523  1.0000
  C   C1143     1.0  0.29800  0.52435  0.17172  1.0000
  C   C1144     1.0  0.29532  0.50683  0.19002  1.0000
  C   C1145     1.0  0.29140  0.56227  0.13712  1.0000
  C   C1146     1.0  0.28077  0.58146  0.12341  1.0000
  C   C1147     1.0  0.31025  0.51823  0.16653  1.0000
  C   C1148     1.0  0.30749  0.50004  0.18455  1.0000
  C   C1149     1.0  0.30201  0.56061  0.12704  1.0000
  C   C1150     1.0  0.29134  0.57974  0.11302  1.0000
  C   C1151     1.0  0.31527  0.50600  0.17330  1.0000
  C   C1152     1.0  0.30188  0.56944  0.11495  1.0000
  N   N281      1.0  0.25189  0.54262  0.18765  1.0000
  N   N282      1.0  0.23451  0.56014  0.18946  1.0000
  N   N283      1.0  0.25058  0.56605  0.17066  1.0000
  N   N284      1.0  0.26866  0.52554  0.19549  1.0000
  N   N285      1.0  0.25968  0.57829  0.14904  1.0000
  N   N286      1.0  0.27645  0.56120  0.15687  1.0000
  N   N287      1.0  0.27776  0.53777  0.17386  1.0000
  N   N288      1.0  0.29383  0.54367  0.15506  1.0000
  Zn  Zn36      1.0  0.26417  0.55191  0.17226  1.0000
  Br  Br577     1.0  0.46858  0.56670  0.76419  1.0000
  Br  Br578     1.0  0.43772  0.55239  0.75887  1.0000
  Br  Br579     1.0  0.43564  0.52036  0.74618  1.0000
  Br  Br580     1.0  0.46362  0.50213  0.74026  1.0000
  Br  Br581     1.0  0.48650  0.48348  0.72823  1.0000
  Br  Br582     1.0  0.50106  0.45674  0.71199  1.0000
  Br  Br583     1.0  0.53477  0.45766  0.70445  1.0000
  Br  Br584     1.0  0.55420  0.48401  0.71452  1.0000
  Br  Br585     1.0  0.49353  0.58407  0.77559  1.0000
  Br  Br586     1.0  0.57915  0.50138  0.72592  1.0000
  Br  Br587     1.0  0.56123  0.58460  0.76187  1.0000
  Br  Br588     1.0  0.51296  0.61042  0.78566  1.0000
  Br  Br589     1.0  0.58411  0.56595  0.74985  1.0000
  Br  Br590     1.0  0.61001  0.51569  0.73123  1.0000
  Br  Br591     1.0  0.54667  0.61134  0.77812  1.0000
  Br  Br592     1.0  0.61209  0.54771  0.74392  1.0000
  C   C1153     1.0  0.49351  0.52265  0.74615  1.0000
  C   C1154     1.0  0.51045  0.50789  0.73542  1.0000
  C   C1155     1.0  0.53398  0.50859  0.73173  1.0000
  C   C1156     1.0  0.49472  0.54375  0.75517  1.0000
  C   C1157     1.0  0.47889  0.52698  0.74835  1.0000
  C   C1158     1.0  0.47964  0.54060  0.75412  1.0000
  C   C1159     1.0  0.46752  0.54831  0.75758  1.0000
  C   C1160     1.0  0.45417  0.54220  0.75495  1.0000
  C   C1161     1.0  0.45340  0.52850  0.74925  1.0000
  C   C1162     1.0  0.46577  0.52075  0.74591  1.0000
  C   C1163     1.0  0.51433  0.49454  0.72915  1.0000
  C   C1164     1.0  0.50571  0.48347  0.72497  1.0000
  C   C1165     1.0  0.51205  0.47205  0.71790  1.0000
  C   C1166     1.0  0.52662  0.47247  0.71473  1.0000
  C   C1167     1.0  0.53531  0.48363  0.71963  1.0000
  C   C1168     1.0  0.52898  0.49488  0.72681  1.0000
  C   C1169     1.0  0.51375  0.55949  0.75838  1.0000
  C   C1170     1.0  0.55301  0.52433  0.73494  1.0000
  C   C1171     1.0  0.51875  0.57320  0.76329  1.0000
  C   C1172     1.0  0.55422  0.54543  0.74396  1.0000
  C   C1173     1.0  0.53728  0.56019  0.75468  1.0000
  C   C1174     1.0  0.56809  0.52747  0.73598  1.0000
  C   C1175     1.0  0.53340  0.57354  0.76096  1.0000
  C   C1176     1.0  0.51242  0.58445  0.77048  1.0000
  C   C1177     1.0  0.56884  0.54109  0.74175  1.0000
  C   C1178     1.0  0.58021  0.51976  0.73253  1.0000
  C   C1179     1.0  0.54202  0.58461  0.76514  1.0000
  C   C1180     1.0  0.52111  0.59561  0.77537  1.0000
  C   C1181     1.0  0.58196  0.54733  0.74420  1.0000
  C   C1182     1.0  0.59356  0.52588  0.73515  1.0000
  C   C1183     1.0  0.53568  0.59603  0.77221  1.0000
  C   C1184     1.0  0.59433  0.53958  0.74085  1.0000
  N   N289      1.0  0.50293  0.53252  0.75083  1.0000
  N   N290      1.0  0.49747  0.51142  0.73908  1.0000
  N   N291      1.0  0.52230  0.51634  0.73660  1.0000
  N   N292      1.0  0.49989  0.55623  0.75875  1.0000
  N   N293      1.0  0.54784  0.51185  0.73135  1.0000
  N   N294      1.0  0.54480  0.53556  0.73928  1.0000
  N   N295      1.0  0.52543  0.55174  0.75350  1.0000
  N   N296      1.0  0.55025  0.55666  0.75102  1.0000
  Zn  Zn37      1.0  0.52386  0.53404  0.74505  1.0000
  Br  Br593     1.0  0.94367  0.31400  0.46086  1.0000
  Br  Br594     1.0  0.95287  0.34710  0.45858  1.0000
  Br  Br595     1.0  0.96761  0.36269  0.48560  1.0000
  Br  Br596     1.0  0.97460  0.34545  0.51397  1.0000
  Br  Br597     1.0  0.97812  0.33520  0.54394  1.0000
  Br  Br598     1.0  0.98529  0.33613  0.57769  1.0000
  Br  Br599     1.0  0.97681  0.30924  0.59767  1.0000
  Br  Br600     1.0  0.96302  0.28101  0.58403  1.0000
  Br  Br601     1.0  0.93687  0.28286  0.45467  1.0000
  Br  Br602     1.0  0.95622  0.24986  0.57785  1.0000
  Br  Br603     1.0  0.92177  0.22867  0.49476  1.0000
  Br  Br604     1.0  0.92308  0.25463  0.44103  1.0000
  Br  Br605     1.0  0.92529  0.21842  0.52474  1.0000
  Br  Br606     1.0  0.94703  0.21677  0.58013  1.0000
  Br  Br607     1.0  0.91460  0.22774  0.46102  1.0000
  Br  Br608     1.0  0.93228  0.20118  0.55310  1.0000
  C   C1185     1.0  0.96136  0.31127  0.51152  1.0000
  C   C1186     1.0  0.96341  0.30466  0.53544  1.0000
  C   C1187     1.0  0.95852  0.28526  0.54838  1.0000
  C   C1188     1.0  0.95211  0.30088  0.49323  1.0000
  C   C1189     1.0  0.96087  0.32205  0.50053  1.0000
  C   C1190     1.0  0.95487  0.31539  0.48874  1.0000
  C   C1191     1.0  0.95259  0.32256  0.47602  1.0000
  C   C1192     1.0  0.95629  0.33699  0.47519  1.0000
  C   C1193     1.0  0.96240  0.34366  0.48697  1.0000
  C   C1194     1.0  0.96477  0.33624  0.49976  1.0000
  C   C1195     1.0  0.96852  0.30737  0.54956  1.0000
  C   C1196     1.0  0.97438  0.31962  0.55503  1.0000
  C   C1197     1.0  0.97734  0.31996  0.56959  1.0000
  C   C1198     1.0  0.97372  0.30829  0.57815  1.0000
  C   C1199     1.0  0.96827  0.29569  0.57220  1.0000
  C   C1200     1.0  0.96552  0.29534  0.55770  1.0000
  C   C1201     1.0  0.94137  0.27860  0.49032  1.0000
  C   C1202     1.0  0.94779  0.26298  0.54547  1.0000
  C   C1203     1.0  0.93438  0.26852  0.48101  1.0000
  C   C1204     1.0  0.93853  0.25260  0.52718  1.0000
  C   C1205     1.0  0.93648  0.25921  0.50327  1.0000
  C   C1206     1.0  0.94503  0.24847  0.54997  1.0000
  C   C1207     1.0  0.93138  0.25649  0.48915  1.0000
  C   C1208     1.0  0.93162  0.26818  0.46650  1.0000
  C   C1209     1.0  0.93902  0.24182  0.53818  1.0000
  C   C1210     1.0  0.94731  0.24130  0.56268  1.0000
  C   C1211     1.0  0.92551  0.24425  0.48367  1.0000
  C   C1212     1.0  0.92617  0.25557  0.46055  1.0000
  C   C1213     1.0  0.93513  0.22763  0.53894  1.0000
  C   C1214     1.0  0.94361  0.22688  0.56351  1.0000
  C   C1215     1.0  0.92255  0.24391  0.46912  1.0000
  C   C1216     1.0  0.93749  0.22020  0.55173  1.0000
  N   N297      1.0  0.95665  0.29846  0.50686  1.0000
  N   N298      1.0  0.96438  0.31364  0.52482  1.0000
  N   N299      1.0  0.95715  0.29148  0.53498  1.0000
  N   N300      1.0  0.94509  0.29152  0.48559  1.0000
  N   N301      1.0  0.95481  0.27235  0.55311  1.0000
  N   N302      1.0  0.94324  0.26540  0.53184  1.0000
  N   N303      1.0  0.94274  0.27239  0.50373  1.0000
  N   N304      1.0  0.93552  0.25022  0.51388  1.0000
  Zn  Zn38      1.0  0.94995  0.28193  0.51935  1.0000
  Br  Br609     1.0  0.35393  0.62359  0.51333  1.0000
  Br  Br610     1.0  0.36581  0.63044  0.54490  1.0000
  Br  Br611     1.0  0.36329  0.60659  0.56971  1.0000
  Br  Br612     1.0  0.35061  0.57584  0.56307  1.0000
  Br  Br613     1.0  0.33487  0.54812  0.56313  1.0000
  Br  Br614     1.0  0.32092  0.51901  0.57532  1.0000
  Br  Br615     1.0  0.29980  0.50048  0.55519  1.0000
  Br  Br616     1.0  0.29404  0.50975  0.52273  1.0000
  Br  Br617     1.0  0.34913  0.62229  0.48123  1.0000
  Br  Br618     1.0  0.28924  0.50845  0.49064  1.0000
  Br  Br619     1.0  0.30829  0.58392  0.44084  1.0000
  Br  Br620     1.0  0.34336  0.63156  0.44877  1.0000
  Br  Br621     1.0  0.29256  0.55620  0.44090  1.0000
  Br  Br622     1.0  0.27735  0.50159  0.45907  1.0000
  Br  Br623     1.0  0.32225  0.61303  0.42864  1.0000
  Br  Br624     1.0  0.27988  0.52545  0.43426  1.0000
  C   C1217     1.0  0.33815  0.57453  0.52854  1.0000
  C   C1218     1.0  0.32513  0.55336  0.52997  1.0000
  C   C1219     1.0  0.31175  0.54037  0.51514  1.0000
  C   C1220     1.0  0.34046  0.59030  0.51199  1.0000
  C   C1221     1.0  0.34524  0.58646  0.53523  1.0000
  C   C1222     1.0  0.34670  0.59666  0.52460  1.0000
  C   C1223     1.0  0.35301  0.60977  0.52714  1.0000
  C   C1224     1.0  0.35785  0.61282  0.54092  1.0000
  C   C1225     1.0  0.35648  0.60256  0.55159  1.0000
  C   C1226     1.0  0.35017  0.58927  0.54883  1.0000
  C   C1227     1.0  0.32121  0.54069  0.53752  1.0000
  C   C1228     1.0  0.32387  0.53707  0.55145  1.0000
  C   C1229     1.0  0.31774  0.52457  0.55664  1.0000
  C   C1230     1.0  0.30869  0.51657  0.54788  1.0000
  C   C1231     1.0  0.30660  0.52019  0.53351  1.0000
  C   C1232     1.0  0.31287  0.53253  0.52835  1.0000
  C   C1233     1.0  0.33141  0.59166  0.48883  1.0000
  C   C1234     1.0  0.30271  0.54174  0.49198  1.0000
  C   C1235     1.0  0.33030  0.59950  0.47561  1.0000
  C   C1236     1.0  0.30502  0.55751  0.47543  1.0000
  C   C1237     1.0  0.31804  0.57868  0.47399  1.0000
  C   C1238     1.0  0.29647  0.53538  0.47937  1.0000
  C   C1239     1.0  0.32196  0.59135  0.46645  1.0000
  C   C1240     1.0  0.33656  0.61185  0.47046  1.0000
  C   C1241     1.0  0.29793  0.54558  0.46873  1.0000
  C   C1242     1.0  0.29015  0.52226  0.47682  1.0000
  C   C1243     1.0  0.31930  0.59497  0.45252  1.0000
  C   C1244     1.0  0.33448  0.61547  0.45609  1.0000
  C   C1245     1.0  0.29300  0.54277  0.45513  1.0000
  C   C1246     1.0  0.28532  0.51922  0.46304  1.0000
  C   C1247     1.0  0.32543  0.60747  0.44733  1.0000
  C   C1248     1.0  0.28668  0.52947  0.45238  1.0000
  N   N305      1.0  0.33588  0.57669  0.51447  1.0000
  N   N306      1.0  0.33299  0.56359  0.53526  1.0000
  N   N307      1.0  0.31911  0.55317  0.51668  1.0000
  N   N308      1.0  0.33840  0.59713  0.49997  1.0000
  N   N309      1.0  0.30476  0.53490  0.50400  1.0000
  N   N310      1.0  0.30729  0.55535  0.48950  1.0000
  N   N311      1.0  0.32406  0.57887  0.48729  1.0000
  N   N312      1.0  0.31017  0.56846  0.46870  1.0000
  Zn  Zn39      1.0  0.32158  0.56602  0.50198  1.0000
  Br  Br625     1.0  0.24751  0.80375  0.67888  1.0000
  Br  Br626     1.0  0.22313  0.79936  0.65498  1.0000
  Br  Br627     1.0  0.19726  0.77726  0.66075  1.0000
  Br  Br628     1.0  0.19466  0.76085  0.69033  1.0000
  Br  Br629     1.0  0.19095  0.73953  0.71374  1.0000
  Br  Br630     1.0  0.17763  0.71303  0.73138  1.0000
  Br  Br631     1.0  0.19457  0.70055  0.75879  1.0000
  Br  Br632     1.0  0.22349  0.71534  0.76966  1.0000
  Br  Br633     1.0  0.27063  0.81583  0.69823  1.0000
  Br  Br634     1.0  0.24660  0.72742  0.78901  1.0000
  Br  Br635     1.0  0.30317  0.79164  0.75415  1.0000
  Br  Br636     1.0  0.29954  0.83062  0.70910  1.0000
  Br  Br637     1.0  0.29946  0.77032  0.77756  1.0000
  Br  Br638     1.0  0.27099  0.73181  0.81290  1.0000
  Br  Br639     1.0  0.31649  0.81814  0.73651  1.0000
  Br  Br640     1.0  0.29685  0.75392  0.80713  1.0000
  C   C1249     1.0  0.22392  0.76802  0.71134  1.0000
  C   C1250     1.0  0.22078  0.75023  0.72847  1.0000
  C   C1251     1.0  0.23229  0.74299  0.74803  1.0000
  C   C1252     1.0  0.24074  0.78322  0.70758  1.0000
  C   C1253     1.0  0.22096  0.77403  0.69747  1.0000
  C   C1254     1.0  0.23181  0.78380  0.69500  1.0000
  C   C1255     1.0  0.23257  0.79167  0.68251  1.0000
  C   C1256     1.0  0.22216  0.78949  0.67205  1.0000
  C   C1257     1.0  0.21121  0.77976  0.67455  1.0000
  C   C1258     1.0  0.21050  0.77194  0.68730  1.0000
  C   C1259     1.0  0.21225  0.73928  0.73481  1.0000
  C   C1260     1.0  0.19989  0.73320  0.72984  1.0000
  C   C1261     1.0  0.19429  0.72173  0.73745  1.0000
  C   C1262     1.0  0.20161  0.71643  0.74931  1.0000
  C   C1263     1.0  0.21391  0.72320  0.75451  1.0000
  C   C1264     1.0  0.21934  0.73471  0.74701  1.0000
  C   C1265     1.0  0.26183  0.78818  0.71985  1.0000
  C   C1266     1.0  0.25338  0.74795  0.76031  1.0000
  C   C1267     1.0  0.27478  0.79646  0.72088  1.0000
  C   C1268     1.0  0.27019  0.76315  0.75655  1.0000
  C   C1269     1.0  0.27334  0.78094  0.73942  1.0000
  C   C1270     1.0  0.26230  0.74737  0.77289  1.0000
  C   C1271     1.0  0.28187  0.79189  0.73308  1.0000
  C   C1272     1.0  0.28021  0.80797  0.71338  1.0000
  C   C1273     1.0  0.27316  0.75714  0.77042  1.0000
  C   C1274     1.0  0.26155  0.73950  0.78537  1.0000
  C   C1275     1.0  0.29422  0.79798  0.73805  1.0000
  C   C1276     1.0  0.29250  0.81474  0.71857  1.0000
  C   C1277     1.0  0.28362  0.75923  0.78059  1.0000
  C   C1278     1.0  0.27196  0.74169  0.79583  1.0000
  C   C1279     1.0  0.29983  0.80944  0.73044  1.0000
  C   C1280     1.0  0.28291  0.75141  0.79334  1.0000
  N   N313      1.0  0.23545  0.77404  0.71758  1.0000
  N   N314      1.0  0.21747  0.75704  0.71676  1.0000
  N   N315      1.0  0.23292  0.75211  0.73634  1.0000
  N   N316      1.0  0.25299  0.78983  0.70880  1.0000
  N   N317      1.0  0.24112  0.74134  0.75909  1.0000
  N   N318      1.0  0.25867  0.75714  0.75031  1.0000
  N   N319      1.0  0.26119  0.77906  0.73154  1.0000
  N   N320      1.0  0.27665  0.77413  0.75112  1.0000
  Zn  Zn40      1.0  0.24706  0.76559  0.73394  1.0000
  Br  Br641     1.0  0.38531  0.90442  0.14192  1.0000
  Br  Br642     1.0  0.41130  0.91564  0.16150  1.0000
  Br  Br643     1.0  0.40478  0.92888  0.19270  1.0000
  Br  Br644     1.0  0.37319  0.92961  0.20504  1.0000
  Br  Br645     1.0  0.34533  0.93730  0.21846  1.0000
  Br  Br646     1.0  0.32313  0.95081  0.24118  1.0000
  Br  Br647     1.0  0.28944  0.95182  0.23358  1.0000
  Br  Br648     1.0  0.27767  0.93795  0.20456  1.0000
  Br  Br649     1.0  0.36671  0.88829  0.12073  1.0000
  Br  Br650     1.0  0.25907  0.92183  0.18337  1.0000
  Br  Br651     1.0  0.29905  0.88894  0.10683  1.0000
  Br  Br652     1.0  0.35494  0.87442  0.09171  1.0000
  Br  Br653     1.0  0.27119  0.89664  0.12025  1.0000
  Br  Br654     1.0  0.23308  0.91060  0.16379  1.0000
  Br  Br655     1.0  0.32125  0.87543  0.08411  1.0000
  Br  Br656     1.0  0.23960  0.89737  0.13259  1.0000
  C   C1281     1.0  0.34944  0.91793  0.17958  1.0000
  C   C1282     1.0  0.32829  0.92543  0.19035  1.0000
  C   C1283     1.0  0.30507  0.92459  0.18507  1.0000
  C   C1284     1.0  0.35401  0.90859  0.15908  1.0000
  C   C1285     1.0  0.36477  0.91848  0.17818  1.0000
  C   C1286     1.0  0.36775  0.91251  0.16495  1.0000
  C   C1287     1.0  0.38156  0.91132  0.15983  1.0000
  C   C1288     1.0  0.39275  0.91650  0.16822  1.0000
  C   C1289     1.0  0.38980  0.92240  0.18153  1.0000
  C   C1290     1.0  0.37577  0.92344  0.18664  1.0000
  C   C1291     1.0  0.32081  0.93101  0.20242  1.0000
  C   C1292     1.0  0.32621  0.93688  0.21470  1.0000
  C   C1293     1.0  0.31659  0.94275  0.22438  1.0000
  C   C1294     1.0  0.30205  0.94310  0.22107  1.0000
  C   C1295     1.0  0.29674  0.93651  0.20872  1.0000
  C   C1296     1.0  0.30633  0.93053  0.19923  1.0000
  C   C1297     1.0  0.33931  0.90165  0.14022  1.0000
  C   C1298     1.0  0.29037  0.91765  0.16621  1.0000
  C   C1299     1.0  0.33805  0.89572  0.12606  1.0000
  C   C1300     1.0  0.29494  0.90832  0.14571  1.0000
  C   C1301     1.0  0.31609  0.90082  0.13494  1.0000
  C   C1302     1.0  0.27663  0.91373  0.16034  1.0000
  C   C1303     1.0  0.32357  0.89524  0.12286  1.0000
  C   C1304     1.0  0.34765  0.88973  0.11657  1.0000
  C   C1305     1.0  0.27961  0.90777  0.14711  1.0000
  C   C1306     1.0  0.26282  0.91492  0.16546  1.0000
  C   C1307     1.0  0.31817  0.88937  0.11059  1.0000
  C   C1308     1.0  0.34233  0.88315  0.10422  1.0000
  C   C1309     1.0  0.26862  0.90281  0.13865  1.0000
  C   C1310     1.0  0.25163  0.90974  0.15707  1.0000
  C   C1311     1.0  0.32779  0.88349  0.10091  1.0000
  C   C1312     1.0  0.25458  0.90384  0.14376  1.0000
  N   N321      1.0  0.34314  0.91143  0.16835  1.0000
  N   N322      1.0  0.34215  0.92424  0.18951  1.0000
  N   N323      1.0  0.31872  0.92192  0.17990  1.0000
  N   N324      1.0  0.35211  0.90395  0.14604  1.0000
  N   N325      1.0  0.29227  0.92230  0.17925  1.0000
  N   N326      1.0  0.30125  0.91481  0.15694  1.0000
  N   N327      1.0  0.32566  0.90432  0.14539  1.0000
  N   N328      1.0  0.30223  0.90200  0.13578  1.0000
  Zn  Zn41      1.0  0.32219  0.91312  0.16264  1.0000
  Br  Br657     1.0  0.64146  0.19058  0.75573  1.0000
  Br  Br658     1.0  0.64411  0.20530  0.72473  1.0000
  Br  Br659     1.0  0.61787  0.20311  0.70242  1.0000
  Br  Br660     1.0  0.58883  0.18792  0.71115  1.0000
  Br  Br661     1.0  0.56223  0.17041  0.71266  1.0000
  Br  Br662     1.0  0.53283  0.15551  0.70244  1.0000
  Br  Br663     1.0  0.51788  0.13171  0.72255  1.0000
  Br  Br664     1.0  0.53097  0.12409  0.75327  1.0000
  Br  Br665     1.0  0.64397  0.18324  0.78727  1.0000
  Br  Br666     1.0  0.53347  0.11675  0.78480  1.0000
  Br  Br667     1.0  0.61270  0.13692  0.82787  1.0000
  Br  Br668     1.0  0.65706  0.17561  0.81798  1.0000
  Br  Br669     1.0  0.58611  0.11941  0.82939  1.0000
  Br  Br670     1.0  0.53082  0.10203  0.81580  1.0000
  Br  Br671     1.0  0.64211  0.15181  0.83809  1.0000
  Br  Br672     1.0  0.55706  0.10422  0.83812  1.0000
  C   C1313     1.0  0.59204  0.17277  0.74445  1.0000
  C   C1314     1.0  0.57163  0.15851  0.74415  1.0000
  C   C1315     1.0  0.56116  0.14318  0.75908  1.0000
  C   C1316     1.0  0.60937  0.17484  0.75940  1.0000
  C   C1317     1.0  0.60273  0.18114  0.73717  1.0000
  C   C1318     1.0  0.61393  0.18245  0.74677  1.0000
  C   C1319     1.0  0.62629  0.18981  0.74340  1.0000
  C   C1320     1.0  0.62752  0.19589  0.72984  1.0000
  C   C1321     1.0  0.61626  0.19467  0.72023  1.0000
  C   C1322     1.0  0.60374  0.18728  0.72381  1.0000
  C   C1323     1.0  0.55847  0.15434  0.73767  1.0000
  C   C1324     1.0  0.55319  0.15782  0.72446  1.0000
  C   C1325     1.0  0.54057  0.15129  0.72011  1.0000
  C   C1326     1.0  0.53413  0.14107  0.72887  1.0000
  C   C1327     1.0  0.53942  0.13813  0.74256  1.0000
  C   C1328     1.0  0.55186  0.14479  0.74690  1.0000
  C   C1329     1.0  0.61378  0.16415  0.78145  1.0000
  C   C1330     1.0  0.56557  0.13249  0.78113  1.0000
  C   C1331     1.0  0.62307  0.16254  0.79363  1.0000
  C   C1332     1.0  0.58290  0.13456  0.79608  1.0000
  C   C1333     1.0  0.60330  0.14882  0.79638  1.0000
  C   C1334     1.0  0.56101  0.12488  0.79377  1.0000
  C   C1335     1.0  0.61647  0.15299  0.80287  1.0000
  C   C1336     1.0  0.63552  0.16920  0.79798  1.0000
  C   C1337     1.0  0.57221  0.12619  0.80337  1.0000
  C   C1338     1.0  0.54864  0.11752  0.79713  1.0000
  C   C1339     1.0  0.62175  0.14951  0.81607  1.0000
  C   C1340     1.0  0.64081  0.16626  0.81167  1.0000
  C   C1341     1.0  0.57120  0.12005  0.81672  1.0000
  C   C1342     1.0  0.54741  0.11144  0.81070  1.0000
  C   C1343     1.0  0.63436  0.15604  0.82042  1.0000
  C   C1344     1.0  0.55868  0.11266  0.82031  1.0000
  N   N329      1.0  0.59586  0.16956  0.75798  1.0000
  N   N330      1.0  0.58074  0.16742  0.73850  1.0000
  N   N331      1.0  0.57325  0.15148  0.75684  1.0000
  N   N332      1.0  0.61758  0.17233  0.77043  1.0000
  N   N333      1.0  0.55735  0.13500  0.77011  1.0000
  N   N334      1.0  0.57908  0.13777  0.78255  1.0000
  N   N335      1.0  0.60168  0.15585  0.78370  1.0000
  N   N336      1.0  0.59420  0.13991  0.80203  1.0000
  Zn  Zn42      1.0  0.58747  0.15366  0.77027  1.0000
  Br  Br673     1.0  0.19463  0.35858  0.09037  1.0000
  Br  Br674     1.0  0.20231  0.32542  0.08524  1.0000
  Br  Br675     1.0  0.19317  0.30188  0.10876  1.0000
  Br  Br676     1.0  0.17534  0.31073  0.13623  1.0000
  Br  Br677     1.0  0.16359  0.31478  0.16558  1.0000
  Br  Br678     1.0  0.15337  0.30687  0.19758  1.0000
  Br  Br679     1.0  0.14566  0.33222  0.21977  1.0000
  Br  Br680     1.0  0.14633  0.36497  0.20979  1.0000
  Br  Br681     1.0  0.18686  0.38990  0.08667  1.0000
  Br  Br682     1.0  0.13856  0.39629  0.20609  1.0000
  Br  Br683     1.0  0.16960  0.44009  0.13088  1.0000
  Br  Br684     1.0  0.18753  0.42265  0.07668  1.0000
  Br  Br685     1.0  0.15785  0.44414  0.16023  1.0000
  Br  Br686     1.0  0.13088  0.42945  0.21122  1.0000
  Br  Br687     1.0  0.17982  0.44799  0.09888  1.0000
  Br  Br688     1.0  0.14001  0.45299  0.18769  1.0000
  C   C1345     1.0  0.17130  0.34721  0.13742  1.0000
  C   C1346     1.0  0.16332  0.34941  0.16090  1.0000
  C   C1347     1.0  0.15688  0.36730  0.17525  1.0000
  C   C1348     1.0  0.17693  0.36267  0.12137  1.0000
  C   C1349     1.0  0.17818  0.33916  0.12623  1.0000
  C   C1350     1.0  0.18186  0.34910  0.11590  1.0000
  C   C1351     1.0  0.18885  0.34525  0.10346  1.0000
  C   C1352     1.0  0.19245  0.33091  0.10144  1.0000
  C   C1353     1.0  0.18868  0.32090  0.11175  1.0000
  C   C1354     1.0  0.18149  0.32494  0.12425  1.0000
  C   C1355     1.0  0.15829  0.34309  0.17384  1.0000
  C   C1356     1.0  0.15816  0.32898  0.17776  1.0000
  C   C1357     1.0  0.15384  0.32569  0.19158  1.0000
  C   C1358     1.0  0.15045  0.33667  0.20110  1.0000
  C   C1359     1.0  0.15011  0.35096  0.19666  1.0000
  C   C1360     1.0  0.15425  0.35416  0.18285  1.0000
  C   C1361     1.0  0.17631  0.38756  0.12120  1.0000
  C   C1362     1.0  0.15626  0.39220  0.17508  1.0000
  C   C1363     1.0  0.17894  0.40071  0.11361  1.0000
  C   C1364     1.0  0.16189  0.40765  0.15904  1.0000
  C   C1365     1.0  0.16987  0.40545  0.13556  1.0000
  C   C1366     1.0  0.15132  0.40576  0.18056  1.0000
  C   C1367     1.0  0.17490  0.41177  0.12261  1.0000
  C   C1368     1.0  0.18307  0.40391  0.09979  1.0000
  C   C1369     1.0  0.15500  0.41571  0.17022  1.0000
  C   C1370     1.0  0.14433  0.40962  0.19299  1.0000
  C   C1371     1.0  0.17503  0.42588  0.11870  1.0000
  C   C1372     1.0  0.18273  0.41820  0.09536  1.0000
  C   C1373     1.0  0.15170  0.42993  0.17220  1.0000
  C   C1374     1.0  0.14074  0.42395  0.19501  1.0000
  C   C1375     1.0  0.17935  0.42918  0.10487  1.0000
  C   C1376     1.0  0.14451  0.43397  0.18470  1.0000
  N   N337      1.0  0.17006  0.36120  0.13414  1.0000
  N   N338      1.0  0.16804  0.34224  0.14992  1.0000
  N   N339      1.0  0.16271  0.36395  0.16203  1.0000
  N   N340      1.0  0.17970  0.37500  0.11540  1.0000
  N   N341      1.0  0.15349  0.37986  0.18105  1.0000
  N   N342      1.0  0.16313  0.39367  0.16232  1.0000
  N   N343      1.0  0.17047  0.39091  0.13443  1.0000
  N   N344      1.0  0.16514  0.41263  0.14654  1.0000
  Zn  Zn43      1.0  0.16659  0.37743  0.14823  1.0000
  Br  Br689     1.0  0.64142  0.35205  0.52384  1.0000
  Br  Br690     1.0  0.63526  0.37803  0.54558  1.0000
  Br  Br691     1.0  0.64153  0.41049  0.53570  1.0000
  Br  Br692     1.0  0.65227  0.41736  0.50427  1.0000
  Br  Br693     1.0  0.66724  0.42820  0.47829  1.0000
  Br  Br694     1.0  0.68250  0.45052  0.45685  1.0000
  Br  Br695     1.0  0.69948  0.43869  0.42917  1.0000
  Br  Br696     1.0  0.69978  0.40524  0.42186  1.0000
  Br  Br697     1.0  0.64062  0.32402  0.50746  1.0000
  Br  Br698     1.0  0.69898  0.37721  0.40547  1.0000
  Br  Br699     1.0  0.67316  0.30106  0.45102  1.0000
  Br  Br700     1.0  0.64092  0.29057  0.50014  1.0000
  Br  Br701     1.0  0.68813  0.31190  0.42505  1.0000
  Br  Br702     1.0  0.70514  0.35124  0.38374  1.0000
  Br  Br703     1.0  0.65790  0.27874  0.47246  1.0000
  Br  Br704     1.0  0.69887  0.31877  0.39361  1.0000
  C   C1377     1.0  0.65860  0.38612  0.48601  1.0000
  C   C1378     1.0  0.67125  0.39547  0.46671  1.0000
  C   C1379     1.0  0.68163  0.38675  0.44712  1.0000
  C   C1380     1.0  0.65380  0.36462  0.49254  1.0000
  C   C1381     1.0  0.65300  0.38735  0.50031  1.0000
  C   C1382     1.0  0.64994  0.37350  0.50456  1.0000
  C   C1383     1.0  0.64442  0.37045  0.51792  1.0000
  C   C1384     1.0  0.64208  0.38171  0.52742  1.0000
  C   C1385     1.0  0.64505  0.39563  0.52314  1.0000
  C   C1386     1.0  0.65053  0.39858  0.50953  1.0000
  C   C1387     1.0  0.67616  0.40744  0.45862  1.0000
  C   C1388     1.0  0.67585  0.42166  0.46209  1.0000
  C   C1389     1.0  0.68253  0.43118  0.45285  1.0000
  C   C1390     1.0  0.68979  0.42602  0.44088  1.0000
  C   C1391     1.0  0.68945  0.41150  0.43726  1.0000
  C   C1392     1.0  0.68264  0.40210  0.44639  1.0000
  C   C1393     1.0  0.65877  0.34251  0.48220  1.0000
  C   C1394     1.0  0.68659  0.36464  0.43678  1.0000
  C   C1395     1.0  0.65776  0.32716  0.48293  1.0000
  C   C1396     1.0  0.68180  0.34314  0.44331  1.0000
  C   C1397     1.0  0.66915  0.33379  0.46260  1.0000
  C   C1398     1.0  0.69045  0.35576  0.42476  1.0000
  C   C1399     1.0  0.66424  0.32183  0.47070  1.0000
  C   C1400     1.0  0.65095  0.31776  0.49206  1.0000
  C   C1401     1.0  0.68740  0.34191  0.42901  1.0000
  C   C1402     1.0  0.69598  0.35881  0.41140  1.0000
  C   C1403     1.0  0.66454  0.30761  0.46722  1.0000
  C   C1404     1.0  0.65061  0.30324  0.48844  1.0000
  C   C1405     1.0  0.68987  0.33068  0.41979  1.0000
  C   C1406     1.0  0.69832  0.34755  0.40190  1.0000
  C   C1407     1.0  0.65787  0.29808  0.47647  1.0000
  C   C1408     1.0  0.69535  0.33363  0.40617  1.0000
  N   N345      1.0  0.65847  0.37252  0.48122  1.0000
  N   N346      1.0  0.66462  0.39639  0.47894  1.0000
  N   N347      1.0  0.67490  0.38312  0.45984  1.0000
  N   N348      1.0  0.65390  0.35064  0.49283  1.0000
  N   N349      1.0  0.68650  0.37862  0.43648  1.0000
  N   N350      1.0  0.68193  0.35674  0.44810  1.0000
  N   N351      1.0  0.66550  0.34614  0.46948  1.0000
  N   N352      1.0  0.67578  0.33287  0.45038  1.0000
  Zn  Zn44      1.0  0.67020  0.36463  0.46466  1.0000
  Br  Br705     1.0  0.15687  0.52486  0.58310  1.0000
  Br  Br706     1.0  0.12945  0.53615  0.60059  1.0000
  Br  Br707     1.0  0.10436  0.55312  0.58405  1.0000
  Br  Br708     1.0  0.10557  0.55755  0.55044  1.0000
  Br  Br709     1.0  0.10481  0.56871  0.52060  1.0000
  Br  Br710     1.0  0.09370  0.58621  0.49301  1.0000
  Br  Br711     1.0  0.11403  0.58892  0.46520  1.0000
  Br  Br712     1.0  0.14429  0.57293  0.46408  1.0000
  Br  Br713     1.0  0.18249  0.50799  0.57246  1.0000
  Br  Br714     1.0  0.16992  0.55605  0.45343  1.0000
  Br  Br715     1.0  0.22198  0.51221  0.51594  1.0000
  Br  Br716     1.0  0.21276  0.49200  0.57133  1.0000
  Br  Br717     1.0  0.22121  0.52337  0.48609  1.0000
  Br  Br718     1.0  0.19734  0.54477  0.43594  1.0000
  Br  Br719     1.0  0.23309  0.49470  0.54352  1.0000
  Br  Br720     1.0  0.22242  0.52780  0.45248  1.0000
  C   C1409     1.0  0.13746  0.54500  0.53722  1.0000
  C   C1410     1.0  0.13646  0.55518  0.51452  1.0000
  C   C1411     1.0  0.15041  0.55553  0.49521  1.0000
  C   C1412     1.0  0.15378  0.53320  0.54828  1.0000
  C   C1413     1.0  0.13273  0.54425  0.55186  1.0000
  C   C1414     1.0  0.14326  0.53669  0.55903  1.0000
  C   C1415     1.0  0.14242  0.53392  0.57352  1.0000
  C   C1416     1.0  0.13068  0.53912  0.58111  1.0000
  C   C1417     1.0  0.12006  0.54662  0.57393  1.0000
  C   C1418     1.0  0.12098  0.54925  0.55921  1.0000
  C   C1419     1.0  0.12874  0.56258  0.50364  1.0000
  C   C1420     1.0  0.11577  0.56931  0.50450  1.0000
  C   C1421     1.0  0.11111  0.57690  0.49260  1.0000
  C   C1422     1.0  0.11990  0.57798  0.48060  1.0000
  C   C1423     1.0  0.13285  0.57052  0.47977  1.0000
  C   C1424     1.0  0.13735  0.56284  0.49156  1.0000
  C   C1425     1.0  0.17638  0.52539  0.54132  1.0000
  C   C1426     1.0  0.17300  0.54772  0.48825  1.0000
  C   C1427     1.0  0.18944  0.51808  0.54497  1.0000
  C   C1428     1.0  0.18932  0.53592  0.49932  1.0000
  C   C1429     1.0  0.19033  0.52573  0.52201  1.0000
  C   C1430     1.0  0.18353  0.54423  0.47751  1.0000
  C   C1431     1.0  0.19805  0.51834  0.53290  1.0000
  C   C1432     1.0  0.19393  0.51040  0.55676  1.0000
  C   C1433     1.0  0.19405  0.53667  0.48467  1.0000
  C   C1434     1.0  0.18437  0.54700  0.46302  1.0000
  C   C1435     1.0  0.21102  0.51161  0.53204  1.0000
  C   C1436     1.0  0.20688  0.50294  0.55593  1.0000
  C   C1437     1.0  0.20580  0.53167  0.47732  1.0000
  C   C1438     1.0  0.19611  0.54180  0.45542  1.0000
  C   C1439     1.0  0.21568  0.50402  0.54393  1.0000
  C   C1440     1.0  0.20673  0.53429  0.46260  1.0000
  N   N353      1.0  0.14978  0.53783  0.53506  1.0000
  N   N354      1.0  0.13168  0.55288  0.52742  1.0000
  N   N355      1.0  0.14957  0.55130  0.50941  1.0000
  N   N356      1.0  0.16616  0.52733  0.55106  1.0000
  N   N357      1.0  0.16063  0.55359  0.48548  1.0000
  N   N358      1.0  0.17700  0.54309  0.50148  1.0000
  N   N359      1.0  0.17722  0.52961  0.52712  1.0000
  N   N360      1.0  0.19511  0.52804  0.50912  1.0000
  Zn  Zn45      1.0  0.16339  0.54046  0.51827  1.0000
  Br  Br721     1.0  0.53829  0.46802  0.59219  1.0000
  Br  Br722     1.0  0.51658  0.46229  0.56610  1.0000
  Br  Br723     1.0  0.49062  0.48426  0.56026  1.0000
  Br  Br724     1.0  0.48704  0.51234  0.57896  1.0000
  Br  Br725     1.0  0.47652  0.53660  0.59676  1.0000
  Br  Br726     1.0  0.45591  0.56209  0.60755  1.0000
  Br  Br727     1.0  0.46191  0.57711  0.63809  1.0000
  Br  Br728     1.0  0.48912  0.56819  0.65688  1.0000
  Br  Br729     1.0  0.56433  0.46965  0.61153  1.0000
  Br  Br730     1.0  0.51516  0.56982  0.67622  1.0000
  Br  Br731     1.0  0.57693  0.50124  0.67165  1.0000
  Br  Br732     1.0  0.59154  0.46073  0.63032  1.0000
  Br  Br733     1.0  0.56641  0.52550  0.68945  1.0000
  Br  Br734     1.0  0.53687  0.57555  0.70231  1.0000
  Br  Br735     1.0  0.59754  0.47575  0.66086  1.0000
  Br  Br736     1.0  0.56283  0.55357  0.70815  1.0000
  C   C1441     1.0  0.51177  0.51263  0.60612  1.0000
  C   C1442     1.0  0.50205  0.53092  0.61993  1.0000
  C   C1443     1.0  0.50755  0.54174  0.64044  1.0000
  C   C1444     1.0  0.52935  0.49822  0.60949  1.0000
  C   C1445     1.0  0.51050  0.50199  0.59505  1.0000
  C   C1446     1.0  0.52180  0.49266  0.59723  1.0000
  C   C1447     1.0  0.52399  0.48087  0.58859  1.0000
  C   C1448     1.0  0.51436  0.47825  0.57750  1.0000
  C   C1449     1.0  0.50308  0.48765  0.57524  1.0000
  C   C1450     1.0  0.50105  0.49963  0.58399  1.0000
  C   C1451     1.0  0.49208  0.54233  0.62172  1.0000
  C   C1452     1.0  0.48053  0.54584  0.61343  1.0000
  C   C1453     1.0  0.47166  0.55676  0.61821  1.0000
  C   C1454     1.0  0.47435  0.56326  0.63137  1.0000
  C   C1455     1.0  0.48654  0.55987  0.63935  1.0000
  C   C1456     1.0  0.49543  0.54913  0.63446  1.0000
  C   C1457     1.0  0.54590  0.49610  0.62797  1.0000
  C   C1458     1.0  0.52410  0.53961  0.65892  1.0000
  C   C1459     1.0  0.55803  0.48870  0.63394  1.0000
  C   C1460     1.0  0.54168  0.52520  0.66229  1.0000
  C   C1461     1.0  0.55140  0.50691  0.64847  1.0000
  C   C1462     1.0  0.53165  0.54517  0.67118  1.0000
  C   C1463     1.0  0.56137  0.49551  0.64669  1.0000
  C   C1464     1.0  0.56691  0.47796  0.62906  1.0000
  C   C1465     1.0  0.54295  0.53585  0.67336  1.0000
  C   C1466     1.0  0.52946  0.55696  0.67982  1.0000
  C   C1467     1.0  0.57292  0.49199  0.65498  1.0000
  C   C1468     1.0  0.57910  0.47458  0.63704  1.0000
  C   C1469     1.0  0.55240  0.53821  0.68441  1.0000
  C   C1470     1.0  0.53909  0.55958  0.69091  1.0000
  C   C1471     1.0  0.58179  0.48107  0.65020  1.0000
  C   C1472     1.0  0.55037  0.55019  0.69317  1.0000
  N   N361      1.0  0.52344  0.51063  0.61434  1.0000
  N   N362      1.0  0.50217  0.52215  0.60910  1.0000
  N   N363      1.0  0.51106  0.53050  0.63141  1.0000
  N   N364      1.0  0.53987  0.49160  0.61587  1.0000
  N   N365      1.0  0.51358  0.54623  0.65254  1.0000
  N   N366      1.0  0.53001  0.52720  0.65407  1.0000
  N   N367      1.0  0.54239  0.50734  0.63700  1.0000
  N   N368      1.0  0.55128  0.51568  0.65931  1.0000
  Zn  Zn46      1.0  0.52673  0.51892  0.63420  1.0000
  Br  Br737     1.0  0.05851  0.85625  0.83231  1.0000
  Br  Br738     1.0  0.07358  0.83858  0.85771  1.0000
  Br  Br739     1.0  0.08801  0.80794  0.85107  1.0000
  Br  Br740     1.0  0.08892  0.79561  0.81947  1.0000
  Br  Br741     1.0  0.08751  0.77774  0.79312  1.0000
  Br  Br742     1.0  0.09125  0.75028  0.77256  1.0000
  Br  Br743     1.0  0.07617  0.75006  0.74147  1.0000
  Br  Br744     1.0  0.05909  0.77750  0.73016  1.0000
  Br  Br745     1.0  0.04700  0.87962  0.81292  1.0000
  Br  Br746     1.0  0.04758  0.80087  0.71077  1.0000
  Br  Br747     1.0  0.01858  0.87937  0.74996  1.0000
  Br  Br748     1.0  0.02991  0.90706  0.80160  1.0000
  Br  Br749     1.0  0.01717  0.86150  0.72360  1.0000
  Br  Br750     1.0  0.03251  0.81854  0.68536  1.0000
  Br  Br751     1.0  0.01483  0.90684  0.77051  1.0000
  Br  Br752     1.0  0.01808  0.84918  0.69201  1.0000
  C   C1473     1.0  0.07019  0.81763  0.79681  1.0000
  C   C1474     1.0  0.06859  0.80243  0.77717  1.0000
  C   C1475     1.0  0.05907  0.80348  0.75535  1.0000
  C   C1476     1.0  0.06116  0.83828  0.80130  1.0000
  C   C1477     1.0  0.07273  0.82002  0.81182  1.0000
  C   C1478     1.0  0.06688  0.83331  0.81475  1.0000
  C   C1479     1.0  0.06721  0.83919  0.82830  1.0000
  C   C1480     1.0  0.07345  0.83134  0.83934  1.0000
  C   C1481     1.0  0.07942  0.81805  0.83641  1.0000
  C   C1482     1.0  0.07912  0.81227  0.82260  1.0000
  C   C1483     1.0  0.07263  0.78960  0.76996  1.0000
  C   C1484     1.0  0.07997  0.77804  0.77515  1.0000
  C   C1485     1.0  0.08145  0.76622  0.76627  1.0000
  C   C1486     1.0  0.07497  0.76622  0.75283  1.0000
  C   C1487     1.0  0.06803  0.77838  0.74755  1.0000
  C   C1488     1.0  0.06674  0.79016  0.75636  1.0000
  C   C1489     1.0  0.04702  0.85364  0.78772  1.0000
  C   C1490     1.0  0.04493  0.81884  0.74178  1.0000
  C   C1491     1.0  0.03934  0.86696  0.78671  1.0000
  C   C1492     1.0  0.03590  0.83949  0.74626  1.0000
  C   C1493     1.0  0.03750  0.85469  0.76591  1.0000
  C   C1494     1.0  0.03921  0.82381  0.72833  1.0000
  C   C1495     1.0  0.03346  0.86752  0.77311  1.0000
  C   C1496     1.0  0.03806  0.87874  0.79553  1.0000
  C   C1497     1.0  0.03336  0.83710  0.73126  1.0000
  C   C1498     1.0  0.03888  0.81793  0.71478  1.0000
  C   C1499     1.0  0.02612  0.87908  0.76792  1.0000
  C   C1500     1.0  0.03111  0.89090  0.79025  1.0000
  C   C1501     1.0  0.02697  0.84485  0.72048  1.0000
  C   C1502     1.0  0.03263  0.82578  0.70373  1.0000
  C   C1503     1.0  0.02464  0.89089  0.77681  1.0000
  C   C1504     1.0  0.02667  0.83906  0.70667  1.0000
  N   N369      1.0  0.06379  0.82889  0.79047  1.0000
  N   N370      1.0  0.07220  0.80561  0.79025  1.0000
  N   N371      1.0  0.06019  0.81050  0.76838  1.0000
  N   N372      1.0  0.05341  0.84983  0.79987  1.0000
  N   N373      1.0  0.05267  0.80729  0.74321  1.0000
  N   N374      1.0  0.04230  0.82823  0.75261  1.0000
  N   N375      1.0  0.04590  0.84662  0.77470  1.0000
  N   N376      1.0  0.03389  0.85151  0.75283  1.0000
  Zn  Zn47      1.0  0.05304  0.82856  0.77154  1.0000
  Br  Br753     1.0  0.40827  0.49399  0.64271  1.0000
  Br  Br754     1.0  0.37749  0.50545  0.65301  1.0000
  Br  Br755     1.0  0.34928  0.49755  0.63477  1.0000
  Br  Br756     1.0  0.35121  0.47733  0.60760  1.0000
  Br  Br757     1.0  0.34869  0.46356  0.57896  1.0000
  Br  Br758     1.0  0.33412  0.45243  0.54972  1.0000
  Br  Br759     1.0  0.35413  0.44080  0.52405  1.0000
  Br  Br760     1.0  0.38807  0.43854  0.52803  1.0000
  Br  Br761     1.0  0.43885  0.48314  0.64140  1.0000
  Br  Br762     1.0  0.41865  0.42768  0.52672  1.0000
  Br  Br763     1.0  0.47823  0.45811  0.59046  1.0000
  Br  Br764     1.0  0.47279  0.48087  0.64538  1.0000
  Br  Br765     1.0  0.47571  0.44434  0.56183  1.0000
  Br  Br766     1.0  0.44943  0.41622  0.51642  1.0000
  Br  Br767     1.0  0.49279  0.46924  0.61971  1.0000
  Br  Br768     1.0  0.47764  0.42412  0.53466  1.0000
  C   C1505     1.0  0.38632  0.46936  0.60030  1.0000
  C   C1506     1.0  0.38341  0.45986  0.57747  1.0000
  C   C1507     1.0  0.39767  0.45073  0.56071  1.0000
  C   C1508     1.0  0.40491  0.47421  0.61289  1.0000
  C   C1509     1.0  0.38113  0.47769  0.61218  1.0000
  C   C1510     1.0  0.39311  0.48087  0.62029  1.0000
  C   C1511     1.0  0.39227  0.48893  0.63265  1.0000
  C   C1512     1.0  0.37896  0.49415  0.63689  1.0000
  C   C1513     1.0  0.36692  0.49089  0.62882  1.0000
  C   C1514     1.0  0.36789  0.48261  0.61638  1.0000
  C   C1515     1.0  0.37438  0.45480  0.56626  1.0000
  C   C1516     1.0  0.35984  0.45595  0.56491  1.0000
  C   C1517     1.0  0.35367  0.45123  0.55225  1.0000
  C   C1518     1.0  0.36236  0.44615  0.54123  1.0000
  C   C1519     1.0  0.37712  0.44454  0.54310  1.0000
  C   C1520     1.0  0.38317  0.44909  0.55578  1.0000
  C   C1521     1.0  0.42924  0.47094  0.60872  1.0000
  C   C1522     1.0  0.42201  0.44746  0.55654  1.0000
  C   C1523     1.0  0.44374  0.47258  0.61365  1.0000
  C   C1524     1.0  0.44060  0.45232  0.56913  1.0000
  C   C1525     1.0  0.44351  0.46181  0.59196  1.0000
  C   C1526     1.0  0.43381  0.44080  0.54914  1.0000
  C   C1527     1.0  0.45254  0.46687  0.60317  1.0000
  C   C1528     1.0  0.44980  0.47713  0.62633  1.0000
  C   C1529     1.0  0.44578  0.44398  0.55725  1.0000
  C   C1530     1.0  0.43464  0.43274  0.53678  1.0000
  C   C1531     1.0  0.46707  0.46572  0.60451  1.0000
  C   C1532     1.0  0.46456  0.47552  0.62820  1.0000
  C   C1533     1.0  0.45902  0.43907  0.55305  1.0000
  C   C1534     1.0  0.44796  0.42752  0.53254  1.0000
  C   C1535     1.0  0.47324  0.47044  0.61717  1.0000
  C   C1536     1.0  0.46000  0.43078  0.54061  1.0000
  N   N377      1.0  0.40048  0.46681  0.60115  1.0000
  N   N378      1.0  0.37885  0.46594  0.58916  1.0000
  N   N379      1.0  0.39737  0.45764  0.57384  1.0000
  N   N380      1.0  0.41833  0.47598  0.61637  1.0000
  N   N381      1.0  0.40858  0.44569  0.55306  1.0000
  N   N382      1.0  0.42643  0.45486  0.56828  1.0000
  N   N383      1.0  0.42954  0.46403  0.59559  1.0000
  N   N384      1.0  0.44807  0.45573  0.58028  1.0000
  Zn  Zn48      1.0  0.41346  0.46084  0.58471  1.0000
  Br  Br769     1.0  0.78038  0.55361  0.89500  1.0000
  Br  Br770     1.0  0.76162  0.57906  0.88140  1.0000
  Br  Br771     1.0  0.77310  0.61157  0.88304  1.0000
  Br  Br772     1.0  0.80339  0.61867  0.89654  1.0000
  Br  Br773     1.0  0.82807  0.63076  0.91270  1.0000
  Br  Br774     1.0  0.84910  0.65439  0.92649  1.0000
  Br  Br775     1.0  0.87348  0.64453  0.94891  1.0000
  Br  Br776     1.0  0.87812  0.61139  0.95618  1.0000
  Br  Br777     1.0  0.79455  0.52511  0.90147  1.0000
  Br  Br778     1.0  0.89230  0.58289  0.96265  1.0000
  Br  Br779     1.0  0.84461  0.50574  0.94495  1.0000
  Br  Br780     1.0  0.79920  0.49196  0.90874  1.0000
  Br  Br781     1.0  0.86928  0.51782  0.96111  1.0000
  Br  Br782     1.0  0.91105  0.55744  0.97625  1.0000
  Br  Br783     1.0  0.82358  0.48210  0.93116  1.0000
  Br  Br784     1.0  0.89958  0.52493  0.97462  1.0000
  C   C1537     1.0  0.81829  0.58827  0.91078  1.0000
  C   C1538     1.0  0.83653  0.59880  0.92405  1.0000
  C   C1539     1.0  0.85396  0.59117  0.93838  1.0000
  C   C1540     1.0  0.81078  0.56662  0.90907  1.0000
  C   C1541     1.0  0.80493  0.58917  0.90316  1.0000
  C   C1542     1.0  0.80005  0.57523  0.90209  1.0000
  C   C1543     1.0  0.78728  0.57191  0.89543  1.0000
  C   C1544     1.0  0.77903  0.58301  0.88985  1.0000
  C   C1545     1.0  0.78395  0.59699  0.89083  1.0000
  C   C1546     1.0  0.79697  0.60021  0.89749  1.0000
  C   C1547     1.0  0.84484  0.61104  0.92779  1.0000
  C   C1548     1.0  0.84253  0.62511  0.92447  1.0000
  C   C1549     1.0  0.85158  0.63522  0.93053  1.0000
  C   C1550     1.0  0.86213  0.63089  0.94015  1.0000
  C   C1551     1.0  0.86464  0.61640  0.94291  1.0000
  C   C1552     1.0  0.85573  0.60638  0.93672  1.0000
  C   C1553     1.0  0.81871  0.54533  0.91927  1.0000
  C   C1554     1.0  0.86189  0.56988  0.94858  1.0000
  C   C1555     1.0  0.81694  0.53012  0.92093  1.0000
  C   C1556     1.0  0.85438  0.54823  0.94687  1.0000
  C   C1557     1.0  0.83615  0.53770  0.93360  1.0000
  C   C1558     1.0  0.87263  0.56126  0.95557  1.0000
  C   C1559     1.0  0.82783  0.52546  0.92986  1.0000
  C   C1560     1.0  0.80803  0.52010  0.91474  1.0000
  C   C1561     1.0  0.86775  0.54732  0.95449  1.0000
  C   C1562     1.0  0.88540  0.56459  0.96222  1.0000
  C   C1563     1.0  0.83015  0.51139  0.93318  1.0000
  C   C1564     1.0  0.81055  0.50560  0.91750  1.0000
  C   C1565     1.0  0.87570  0.53629  0.96016  1.0000
  C   C1566     1.0  0.89365  0.55349  0.96780  1.0000
  C   C1567     1.0  0.82110  0.50128  0.92712  1.0000
  C   C1568     1.0  0.88872  0.53950  0.96682  1.0000
  N   N385      1.0  0.82201  0.57465  0.91374  1.0000
  N   N386      1.0  0.82532  0.59910  0.91576  1.0000
  N   N387      1.0  0.84194  0.58701  0.93075  1.0000
  N   N388      1.0  0.80941  0.55295  0.91163  1.0000
  N   N389      1.0  0.86327  0.58355  0.94603  1.0000
  N   N390      1.0  0.85067  0.56184  0.94391  1.0000
  N   N391      1.0  0.83074  0.54948  0.92690  1.0000
  N   N392      1.0  0.84735  0.53740  0.94189  1.0000
  Zn  Zn49      1.0  0.83634  0.56825  0.92883  1.0000
  Br  Br785     1.0  0.45040  0.28322  0.30273  1.0000
  Br  Br786     1.0  0.47771  0.28569  0.32353  1.0000
  Br  Br787     1.0  0.50724  0.26999  0.31499  1.0000
  Br  Br788     1.0  0.51024  0.25336  0.28558  1.0000
  Br  Br789     1.0  0.51618  0.23250  0.26222  1.0000
  Br  Br790     1.0  0.53327  0.20909  0.24350  1.0000
  Br  Br791     1.0  0.51673  0.19181  0.21856  1.0000
  Br  Br792     1.0  0.48408  0.19897  0.21107  1.0000
  Br  Br793     1.0  0.42302  0.28871  0.28616  1.0000
  Br  Br794     1.0  0.45670  0.20446  0.19449  1.0000
  Br  Br795     1.0  0.39093  0.25518  0.23500  1.0000
  Br  Br796     1.0  0.39037  0.29587  0.27866  1.0000
  Br  Br797     1.0  0.39687  0.23431  0.21165  1.0000
  Br  Br798     1.0  0.42939  0.20199  0.17369  1.0000
  Br  Br799     1.0  0.37383  0.27859  0.25372  1.0000
  Br  Br800     1.0  0.39987  0.21769  0.18223  1.0000
  C   C1569     1.0  0.47789  0.25259  0.26818  1.0000
  C   C1570     1.0  0.48317  0.23529  0.25108  1.0000
  C   C1571     1.0  0.47153  0.22472  0.23317  1.0000
  C   C1572     1.0  0.45850  0.26360  0.27373  1.0000
  C   C1573     1.0  0.48092  0.25972  0.28150  1.0000
  C   C1574     1.0  0.46842  0.26679  0.28512  1.0000
  C   C1575     1.0  0.46727  0.27481  0.29748  1.0000
  C   C1576     1.0  0.47903  0.27557  0.30663  1.0000
  C   C1577     1.0  0.49161  0.26857  0.30297  1.0000
  C   C1578     1.0  0.49267  0.26058  0.29035  1.0000
  C   C1579     1.0  0.49326  0.22637  0.24391  1.0000
  C   C1580     1.0  0.50719  0.22355  0.24743  1.0000
  C   C1581     1.0  0.51444  0.21339  0.23937  1.0000
  C   C1582     1.0  0.50727  0.20601  0.22857  1.0000
  C   C1583     1.0  0.49320  0.20950  0.22481  1.0000
  C   C1584     1.0  0.48611  0.21974  0.23274  1.0000
  C   C1585     1.0  0.43557  0.26296  0.26405  1.0000
  C   C1586     1.0  0.44860  0.22408  0.22349  1.0000
  C   C1587     1.0  0.42100  0.26794  0.26448  1.0000
  C   C1588     1.0  0.42921  0.23509  0.22904  1.0000
  C   C1589     1.0  0.42394  0.25239  0.24615  1.0000
  C   C1590     1.0  0.43868  0.22089  0.21210  1.0000
  C   C1591     1.0  0.41384  0.26131  0.25331  1.0000
  C   C1592     1.0  0.41390  0.27818  0.27241  1.0000
  C   C1593     1.0  0.42618  0.22796  0.21572  1.0000
  C   C1594     1.0  0.43984  0.21287  0.19974  1.0000
  C   C1595     1.0  0.39991  0.26413  0.24979  1.0000
  C   C1596     1.0  0.39984  0.28167  0.26865  1.0000
  C   C1597     1.0  0.41443  0.22710  0.20688  1.0000
  C   C1598     1.0  0.42808  0.21211  0.19059  1.0000
  C   C1599     1.0  0.39266  0.27429  0.25785  1.0000
  C   C1600     1.0  0.41550  0.21911  0.19425  1.0000
  N   N393      1.0  0.46463  0.25547  0.26331  1.0000
  N   N394      1.0  0.48609  0.24319  0.26218  1.0000
  N   N395      1.0  0.47010  0.23394  0.24471  1.0000
  N   N396      1.0  0.44497  0.26711  0.27391  1.0000
  N   N397      1.0  0.46213  0.22057  0.22331  1.0000
  N   N398      1.0  0.44247  0.23221  0.23391  1.0000
  N   N399      1.0  0.43700  0.25374  0.25251  1.0000
  N   N400      1.0  0.42101  0.24449  0.23504  1.0000
  Zn  Zn50      1.0  0.45355  0.24384  0.24861  1.0000
  Br  Br801     1.0  0.71256  0.17531  0.35394  1.0000
  Br  Br802     1.0  0.71048  0.14798  0.37476  1.0000
  Br  Br803     1.0  0.69723  0.11839  0.36292  1.0000
  Br  Br804     1.0  0.68760  0.11536  0.33054  1.0000
  Br  Br805     1.0  0.67248  0.10935  0.30312  1.0000
  Br  Br806     1.0  0.65392  0.09217  0.27964  1.0000
  Br  Br807     1.0  0.64255  0.10867  0.25149  1.0000
  Br  Br808     1.0  0.65101  0.14136  0.24580  1.0000
  Br  Br809     1.0  0.72146  0.20275  0.33903  1.0000
  Br  Br810     1.0  0.65991  0.16880  0.23088  1.0000
  Br  Br811     1.0  0.69999  0.23476  0.28170  1.0000
  Br  Br812     1.0  0.72992  0.23545  0.33334  1.0000
  Br  Br813     1.0  0.68487  0.22876  0.25429  1.0000
  Br  Br814     1.0  0.66199  0.19614  0.21007  1.0000
  Br  Br815     1.0  0.71855  0.25194  0.30518  1.0000
  Br  Br816     1.0  0.67524  0.22573  0.22191  1.0000
  C   C1601     1.0  0.69054  0.14772  0.31343  1.0000
  C   C1602     1.0  0.67751  0.14239  0.29290  1.0000
  C   C1603     1.0  0.67113  0.15400  0.27309  1.0000
  C   C1604     1.0  0.69993  0.16716  0.32130  1.0000
  C   C1605     1.0  0.69454  0.14471  0.32800  1.0000
  C   C1606     1.0  0.70056  0.15724  0.33311  1.0000
  C   C1607     1.0  0.70561  0.15841  0.34695  1.0000
  C   C1608     1.0  0.70439  0.14664  0.35602  1.0000
  C   C1609     1.0  0.69844  0.13403  0.35089  1.0000
  C   C1610     1.0  0.69347  0.13295  0.33680  1.0000
  C   C1611     1.0  0.67046  0.13227  0.28392  1.0000
  C   C1612     1.0  0.66701  0.11831  0.28671  1.0000
  C   C1613     1.0  0.65894  0.11103  0.27659  1.0000
  C   C1614     1.0  0.65411  0.11819  0.26442  1.0000
  C   C1615     1.0  0.65827  0.13227  0.26154  1.0000
  C   C1616     1.0  0.66645  0.13941  0.27155  1.0000
  C   C1617     1.0  0.70134  0.19011  0.31173  1.0000
  C   C1618     1.0  0.67254  0.17695  0.26353  1.0000
  C   C1619     1.0  0.70602  0.20470  0.31327  1.0000
  C   C1620     1.0  0.68193  0.19639  0.27140  1.0000
  C   C1621     1.0  0.69496  0.20172  0.29193  1.0000
  C   C1622     1.0  0.67191  0.18687  0.25172  1.0000
  C   C1623     1.0  0.70201  0.21185  0.30091  1.0000
  C   C1624     1.0  0.71420  0.21184  0.32329  1.0000
  C   C1625     1.0  0.67793  0.19940  0.25683  1.0000
  C   C1626     1.0  0.66686  0.18570  0.23788  1.0000
  C   C1627     1.0  0.70546  0.22580  0.29811  1.0000
  C   C1628     1.0  0.71836  0.22593  0.32040  1.0000
  C   C1629     1.0  0.67900  0.21117  0.24802  1.0000
  C   C1630     1.0  0.66808  0.19747  0.22880  1.0000
  C   C1631     1.0  0.71353  0.23308  0.30824  1.0000
  C   C1632     1.0  0.67403  0.21008  0.23394  1.0000
  N   N401      1.0  0.69436  0.16101  0.30933  1.0000
  N   N402      1.0  0.68275  0.13949  0.30548  1.0000
  N   N403      1.0  0.67754  0.15546  0.28640  1.0000
  N   N404      1.0  0.70324  0.18071  0.32227  1.0000
  N   N405      1.0  0.66923  0.16340  0.26256  1.0000
  N   N406      1.0  0.67811  0.18311  0.27550  1.0000
  N   N407      1.0  0.69493  0.18865  0.29843  1.0000
  N   N408      1.0  0.68972  0.20463  0.27935  1.0000
  Zn  Zn51      1.0  0.68624  0.17206  0.29241  1.0000
  Br  Br817     1.0  0.46477  0.11948  0.72100  1.0000
  Br  Br818     1.0  0.43914  0.11716  0.74386  1.0000
  Br  Br819     1.0  0.40759  0.12831  0.73542  1.0000
  Br  Br820     1.0  0.40106  0.14019  0.70432  1.0000
  Br  Br821     1.0  0.39148  0.15679  0.67886  1.0000
  Br  Br822     1.0  0.37081  0.17539  0.65842  1.0000
  Br  Br823     1.0  0.38385  0.19058  0.63025  1.0000
  Br  Br824     1.0  0.41662  0.18589  0.62147  1.0000
  Br  Br825     1.0  0.49162  0.11459  0.70340  1.0000
  Br  Br826     1.0  0.44346  0.18099  0.60387  1.0000
  Br  Br827     1.0  0.51675  0.14368  0.64601  1.0000
  Br  Br828     1.0  0.52439  0.10989  0.69462  1.0000
  Br  Br829     1.0  0.50717  0.16029  0.62055  1.0000
  Br  Br830     1.0  0.46910  0.18332  0.58101  1.0000
  Br  Br831     1.0  0.53743  0.12508  0.66645  1.0000
  Br  Br832     1.0  0.50065  0.17216  0.58945  1.0000
  C   C1633     1.0  0.43207  0.14186  0.68471  1.0000
  C   C1634     1.0  0.42391  0.15591  0.66585  1.0000
  C   C1635     1.0  0.43324  0.16499  0.64589  1.0000
  C   C1636     1.0  0.45287  0.13383  0.69028  1.0000
  C   C1637     1.0  0.43063  0.13641  0.69905  1.0000
  C   C1638     1.0  0.44404  0.13127  0.70268  1.0000
  C   C1639     1.0  0.44679  0.12526  0.71590  1.0000
  C   C1640     1.0  0.43573  0.12458  0.72588  1.0000
  C   C1641     1.0  0.42225  0.12964  0.72222  1.0000
  C   C1642     1.0  0.41957  0.13560  0.70875  1.0000
  C   C1643     1.0  0.41248  0.16262  0.65829  1.0000
  C   C1644     1.0  0.39854  0.16444  0.66238  1.0000
  C   C1645     1.0  0.38974  0.17254  0.65357  1.0000
  C   C1646     1.0  0.39541  0.17901  0.64139  1.0000
  C   C1647     1.0  0.40954  0.17652  0.63713  1.0000
  C   C1648     1.0  0.41819  0.16831  0.64584  1.0000
  C   C1649     1.0  0.47500  0.13548  0.67898  1.0000
  C   C1650     1.0  0.45537  0.16664  0.63459  1.0000
  C   C1651     1.0  0.49004  0.13217  0.67903  1.0000
  C   C1652     1.0  0.47616  0.15861  0.64017  1.0000
  C   C1653     1.0  0.48433  0.14456  0.65903  1.0000
  C   C1654     1.0  0.46420  0.16920  0.62219  1.0000
  C   C1655     1.0  0.49576  0.13785  0.66658  1.0000
  C   C1656     1.0  0.49869  0.12395  0.68774  1.0000
  C   C1657     1.0  0.47760  0.16406  0.62582  1.0000
  C   C1658     1.0  0.46144  0.17521  0.60898  1.0000
  C   C1659     1.0  0.50969  0.13604  0.66249  1.0000
  C   C1660     1.0  0.51282  0.12146  0.68349  1.0000
  C   C1661     1.0  0.48867  0.16487  0.61612  1.0000
  C   C1662     1.0  0.47250  0.17589  0.59899  1.0000
  C   C1663     1.0  0.51849  0.12794  0.67130  1.0000
  C   C1664     1.0  0.48598  0.17083  0.60265  1.0000
  N   N409      1.0  0.44528  0.13972  0.67933  1.0000
  N   N410      1.0  0.42253  0.14940  0.67810  1.0000
  N   N411      1.0  0.43636  0.15770  0.65844  1.0000
  N   N412      1.0  0.46670  0.13182  0.68996  1.0000
  N   N413      1.0  0.44154  0.16865  0.63491  1.0000
  N   N414      1.0  0.46296  0.16075  0.64555  1.0000
  N   N415      1.0  0.47188  0.14277  0.66644  1.0000
  N   N416      1.0  0.48570  0.15107  0.64678  1.0000
  Zn  Zn52      1.0  0.45412  0.15024  0.66244  1.0000
  Br  Br833     1.0  0.05228  0.58019  0.07374  1.0000
  Br  Br834     1.0  0.05588  0.54857  0.06063  1.0000
  Br  Br835     1.0  0.05669  0.52126  0.08172  1.0000
  Br  Br836     1.0  0.05246  0.52497  0.11517  1.0000
  Br  Br837     1.0  0.05435  0.52386  0.14697  1.0000
  Br  Br838     1.0  0.05832  0.51059  0.17858  1.0000
  Br  Br839     1.0  0.06161  0.53177  0.20568  1.0000
  Br  Br840     1.0  0.05918  0.56571  0.20172  1.0000
  Br  Br841     1.0  0.04480  0.61140  0.07873  1.0000
  Br  Br842     1.0  0.05170  0.59691  0.20670  1.0000
  Br  Br843     1.0  0.04963  0.65324  0.13348  1.0000
  Br  Br844     1.0  0.04236  0.64533  0.07476  1.0000
  Br  Br845     1.0  0.05152  0.65213  0.16528  1.0000
  Br  Br846     1.0  0.04809  0.62854  0.21981  1.0000
  Br  Br847     1.0  0.04566  0.66651  0.10187  1.0000
  Br  Br848     1.0  0.04728  0.65584  0.19873  1.0000
  C   C1665     1.0  0.05061  0.56064  0.12377  1.0000
  C   C1666     1.0  0.05337  0.55877  0.14844  1.0000
  C   C1667     1.0  0.05423  0.57390  0.16682  1.0000
  C   C1668     1.0  0.04948  0.57865  0.10954  1.0000
  C   C1669     1.0  0.05183  0.55472  0.10959  1.0000
  C   C1670     1.0  0.05115  0.56631  0.10040  1.0000
  C   C1671     1.0  0.05210  0.56474  0.08574  1.0000
  C   C1672     1.0  0.05399  0.55105  0.08013  1.0000
  C   C1673     1.0  0.05457  0.53939  0.08932  1.0000
  C   C1674     1.0  0.05348  0.54112  0.10416  1.0000
  C   C1675     1.0  0.05405  0.55029  0.16110  1.0000
  C   C1676     1.0  0.05508  0.53574  0.16240  1.0000
  C   C1677     1.0  0.05688  0.53013  0.17603  1.0000
  C   C1678     1.0  0.05823  0.53932  0.18771  1.0000
  C   C1679     1.0  0.05656  0.55411  0.18617  1.0000
  C   C1680     1.0  0.05459  0.55963  0.17261  1.0000
  C   C1681     1.0  0.04974  0.60321  0.11362  1.0000
  C   C1682     1.0  0.05449  0.59846  0.17091  1.0000
  C   C1683     1.0  0.04939  0.61748  0.10784  1.0000
  C   C1684     1.0  0.05337  0.61647  0.15668  1.0000
  C   C1685     1.0  0.05061  0.61833  0.13201  1.0000
  C   C1686     1.0  0.05282  0.61079  0.18005  1.0000
  C   C1687     1.0  0.04993  0.62682  0.11935  1.0000
  C   C1688     1.0  0.04741  0.62299  0.09428  1.0000
  C   C1689     1.0  0.05215  0.62239  0.17086  1.0000
  C   C1690     1.0  0.05188  0.61236  0.19471  1.0000
  C   C1691     1.0  0.04889  0.64136  0.11805  1.0000
  C   C1692     1.0  0.04574  0.63779  0.09274  1.0000
  C   C1693     1.0  0.05049  0.63598  0.17629  1.0000
  C   C1694     1.0  0.04999  0.62606  0.20032  1.0000
  C   C1695     1.0  0.04709  0.64698  0.10441  1.0000
  C   C1696     1.0  0.04940  0.63771  0.19112  1.0000
  N   N417      1.0  0.04859  0.57491  0.12359  1.0000
  N   N418      1.0  0.05275  0.55361  0.13550  1.0000
  N   N419      1.0  0.05382  0.57291  0.15202  1.0000
  N   N420      1.0  0.04991  0.59186  0.10501  1.0000
  N   N421      1.0  0.05406  0.58524  0.17544  1.0000
  N   N422      1.0  0.05538  0.60219  0.15685  1.0000
  N   N423      1.0  0.05016  0.60419  0.12842  1.0000
  N   N424      1.0  0.05122  0.62349  0.14495  1.0000
  Zn  Zn53      1.0  0.05199  0.58855  0.14022  1.0000
  Br  Br849     1.0  0.79003  0.16950  0.62520  1.0000
  Br  Br850     1.0  0.76096  0.15191  0.63071  1.0000
  Br  Br851     1.0  0.73264  0.15947  0.61249  1.0000
  Br  Br852     1.0  0.73341  0.18302  0.58809  1.0000
  Br  Br853     1.0  0.72780  0.20744  0.56838  1.0000
  Br  Br854     1.0  0.71018  0.22911  0.54811  1.0000
  Br  Br855     1.0  0.72544  0.25788  0.53656  1.0000
  Br  Br856     1.0  0.75837  0.26419  0.54354  1.0000
  Br  Br857     1.0  0.82104  0.17863  0.62212  1.0000
  Br  Br858     1.0  0.78938  0.27332  0.54046  1.0000
  Br  Br859     1.0  0.85161  0.23538  0.59728  1.0000
  Br  Br860     1.0  0.85397  0.18493  0.62910  1.0000
  Br  Br861     1.0  0.84600  0.25980  0.57757  1.0000
  Br  Br862     1.0  0.81846  0.29090  0.53495  1.0000
  Br  Br863     1.0  0.86923  0.21371  0.61755  1.0000
  Br  Br864     1.0  0.84678  0.28334  0.55317  1.0000
  C   C1697     1.0  0.76620  0.19956  0.58756  1.0000
  C   C1698     1.0  0.76047  0.21895  0.57304  1.0000
  C   C1699     1.0  0.77200  0.23790  0.56434  1.0000
  C   C1700     1.0  0.78512  0.19399  0.59936  1.0000
  C   C1701     1.0  0.76202  0.18787  0.59669  1.0000
  C   C1702     1.0  0.77419  0.18429  0.60434  1.0000
  C   C1703     1.0  0.77422  0.17345  0.61438  1.0000
  C   C1704     1.0  0.76151  0.16608  0.61696  1.0000
  C   C1705     1.0  0.74931  0.16959  0.60923  1.0000
  C   C1706     1.0  0.74946  0.18052  0.59900  1.0000
  C   C1707     1.0  0.75078  0.22610  0.56368  1.0000
  C   C1708     1.0  0.73671  0.22309  0.56094  1.0000
  C   C1709     1.0  0.72918  0.23253  0.55228  1.0000
  C   C1710     1.0  0.73584  0.24490  0.54727  1.0000
  C   C1711     1.0  0.75038  0.24743  0.54974  1.0000
  C   C1712     1.0  0.75787  0.23792  0.55820  1.0000
  C   C1713     1.0  0.80741  0.20492  0.60132  1.0000
  C   C1714     1.0  0.79429  0.24883  0.56630  1.0000
  C   C1715     1.0  0.82154  0.20490  0.60746  1.0000
  C   C1716     1.0  0.81321  0.24326  0.57810  1.0000
  C   C1717     1.0  0.81894  0.22387  0.59262  1.0000
  C   C1718     1.0  0.80522  0.25852  0.56132  1.0000
  C   C1719     1.0  0.82863  0.21672  0.60198  1.0000
  C   C1720     1.0  0.82903  0.19539  0.61592  1.0000
  C   C1721     1.0  0.81739  0.25494  0.56897  1.0000
  C   C1722     1.0  0.80520  0.26937  0.55128  1.0000
  C   C1723     1.0  0.84270  0.21973  0.60472  1.0000
  C   C1724     1.0  0.84357  0.19792  0.61839  1.0000
  C   C1725     1.0  0.82995  0.26229  0.56666  1.0000
  C   C1726     1.0  0.81791  0.27674  0.54870  1.0000
  C   C1727     1.0  0.85023  0.21029  0.61338  1.0000
  C   C1728     1.0  0.83010  0.27323  0.55643  1.0000
  N   N425      1.0  0.78021  0.20274  0.58879  1.0000
  N   N426      1.0  0.75748  0.20734  0.58015  1.0000
  N   N427      1.0  0.77305  0.22634  0.57358  1.0000
  N   N428      1.0  0.79785  0.19504  0.60504  1.0000
  N   N429      1.0  0.78156  0.24778  0.56061  1.0000
  N   N430      1.0  0.79920  0.24007  0.57687  1.0000
  N   N431      1.0  0.80636  0.21648  0.59208  1.0000
  N   N432      1.0  0.82193  0.23548  0.58551  1.0000
  Zn  Zn54      1.0  0.78971  0.22141  0.58283  1.0000
  Br  Br865     1.0  0.89174  0.29147  0.28614  1.0000
  Br  Br866     1.0  0.90370  0.31780  0.26747  1.0000
  Br  Br867     1.0  0.92626  0.31192  0.24203  1.0000
  Br  Br868     1.0  0.93571  0.28032  0.23411  1.0000
  Br  Br869     1.0  0.95144  0.25362  0.22661  1.0000
  Br  Br870     1.0  0.97439  0.23299  0.21117  1.0000
  Br  Br871     1.0  0.97869  0.20067  0.22262  1.0000
  Br  Br872     1.0  0.95917  0.18838  0.24793  1.0000
  Br  Br873     1.0  0.87347  0.27155  0.30415  1.0000
  Br  Br874     1.0  0.94090  0.16846  0.26594  1.0000
  Br  Br875     1.0  0.88121  0.20630  0.32547  1.0000
  Br  Br876     1.0  0.85395  0.25925  0.32946  1.0000
  Br  Br877     1.0  0.89693  0.17961  0.31798  1.0000
  Br  Br878     1.0  0.92894  0.14213  0.28461  1.0000
  Br  Br879     1.0  0.85825  0.22693  0.34091  1.0000
  Br  Br880     1.0  0.90638  0.14801  0.31005  1.0000
  C   C1729     1.0  0.92125  0.25647  0.25801  1.0000
  C   C1730     1.0  0.93492  0.23649  0.25221  1.0000
  C   C1731     1.0  0.93643  0.21393  0.25973  1.0000
  C   C1732     1.0  0.90578  0.26050  0.27452  1.0000
  C   C1733     1.0  0.91885  0.27169  0.25772  1.0000
  C   C1734     1.0  0.90891  0.27432  0.26838  1.0000
  C   C1735     1.0  0.90404  0.28795  0.27134  1.0000
  C   C1736     1.0  0.90950  0.29936  0.26344  1.0000
  C   C1737     1.0  0.91940  0.29674  0.25267  1.0000
  C   C1738     1.0  0.92416  0.28286  0.24970  1.0000
  C   C1739     1.0  0.94490  0.22945  0.24307  1.0000
  C   C1740     1.0  0.95309  0.23506  0.23231  1.0000
  C   C1741     1.0  0.96301  0.22613  0.22579  1.0000
  C   C1742     1.0  0.96477  0.21217  0.23073  1.0000
  C   C1743     1.0  0.95588  0.20651  0.24135  1.0000
  C   C1744     1.0  0.94591  0.21538  0.24768  1.0000
  C   C1745     1.0  0.89621  0.24600  0.29235  1.0000
  C   C1746     1.0  0.92686  0.19943  0.27757  1.0000
  C   C1747     1.0  0.88673  0.24454  0.30441  1.0000
  C   C1748     1.0  0.91139  0.20346  0.29407  1.0000
  C   C1749     1.0  0.89772  0.22344  0.29987  1.0000
  C   C1750     1.0  0.92373  0.18561  0.28370  1.0000
  C   C1751     1.0  0.88774  0.23048  0.30901  1.0000
  C   C1752     1.0  0.87676  0.25342  0.31073  1.0000
  C   C1753     1.0  0.91379  0.18824  0.29437  1.0000
  C   C1754     1.0  0.92860  0.17198  0.28074  1.0000
  C   C1755     1.0  0.87955  0.22486  0.31977  1.0000
  C   C1756     1.0  0.86787  0.24776  0.32135  1.0000
  C   C1757     1.0  0.90848  0.17707  0.30238  1.0000
  C   C1758     1.0  0.92314  0.16056  0.28864  1.0000
  C   C1759     1.0  0.86963  0.23379  0.32629  1.0000
  C   C1760     1.0  0.91324  0.16319  0.29941  1.0000
  N   N433      1.0  0.91293  0.24979  0.26770  1.0000
  N   N434      1.0  0.93128  0.24990  0.25109  1.0000
  N   N435      1.0  0.93017  0.22713  0.26236  1.0000
  N   N436      1.0  0.89795  0.25860  0.28593  1.0000
  N   N437      1.0  0.93469  0.20133  0.26615  1.0000
  N   N438      1.0  0.91971  0.21014  0.28438  1.0000
  N   N439      1.0  0.90247  0.23280  0.28972  1.0000
  N   N440      1.0  0.90136  0.21003  0.30099  1.0000
  Zn  Zn55      1.0  0.91632  0.22996  0.27604  1.0000
  Br  Br881     1.0  0.61720  0.67609  0.07088  1.0000
  Br  Br882     1.0  0.61549  0.64309  0.08052  1.0000
  Br  Br883     1.0  0.58491  0.62901  0.08809  1.0000
  Br  Br884     1.0  0.55623  0.64681  0.08471  1.0000
  Br  Br885     1.0  0.52776  0.66068  0.08827  1.0000
  Br  Br886     1.0  0.49441  0.66419  0.09643  1.0000
  Br  Br887     1.0  0.48006  0.69563  0.09640  1.0000
  Br  Br888     1.0  0.49811  0.72305  0.08662  1.0000
  Br  Br889     1.0  0.62541  0.70437  0.05718  1.0000
  Br  Br890     1.0  0.50632  0.75132  0.07292  1.0000
  Br  Br891     1.0  0.59576  0.76673  0.05554  1.0000
  Br  Br892     1.0  0.64346  0.73179  0.04741  1.0000
  Br  Br893     1.0  0.56729  0.78061  0.05909  1.0000
  Br  Br894     1.0  0.50803  0.78433  0.06329  1.0000
  Br  Br895     1.0  0.62911  0.76322  0.04738  1.0000
  Br  Br896     1.0  0.53861  0.79841  0.05572  1.0000
  C   C1761     1.0  0.56396  0.68157  0.07572  1.0000
  C   C1762     1.0  0.54161  0.69168  0.07996  1.0000
  C   C1763     1.0  0.53202  0.71343  0.07844  1.0000
  C   C1764     1.0  0.58434  0.69062  0.07014  1.0000
  C   C1765     1.0  0.57413  0.67014  0.07752  1.0000
  C   C1766     1.0  0.58728  0.67595  0.07397  1.0000
  C   C1767     1.0  0.59975  0.66804  0.07454  1.0000
  C   C1768     1.0  0.59900  0.65384  0.07904  1.0000
  C   C1769     1.0  0.58580  0.64796  0.08251  1.0000
  C   C1770     1.0  0.57323  0.65606  0.08177  1.0000
  C   C1771     1.0  0.52674  0.69017  0.08301  1.0000
  C   C1772     1.0  0.51935  0.67823  0.08717  1.0000
  C   C1773     1.0  0.50503  0.67985  0.09076  1.0000
  C   C1774     1.0  0.49887  0.69344  0.09066  1.0000
  C   C1775     1.0  0.50648  0.70538  0.08581  1.0000
  C   C1776     1.0  0.52067  0.70367  0.08209  1.0000
  C   C1777     1.0  0.59150  0.71398  0.06536  1.0000
  C   C1778     1.0  0.53918  0.73680  0.07366  1.0000
  C   C1779     1.0  0.60284  0.72375  0.06172  1.0000
  C   C1780     1.0  0.55955  0.74584  0.06808  1.0000
  C   C1781     1.0  0.58191  0.73574  0.06384  1.0000
  C   C1782     1.0  0.53624  0.75146  0.06983  1.0000
  C   C1783     1.0  0.59678  0.73725  0.06079  1.0000
  C   C1784     1.0  0.61704  0.72204  0.05799  1.0000
  C   C1785     1.0  0.54939  0.75728  0.06629  1.0000
  C   C1786     1.0  0.52377  0.75937  0.06926  1.0000
  C   C1787     1.0  0.60416  0.74919  0.05663  1.0000
  C   C1788     1.0  0.62465  0.73398  0.05314  1.0000
  C   C1789     1.0  0.55029  0.77136  0.06203  1.0000
  C   C1790     1.0  0.52452  0.77358  0.06476  1.0000
  C   C1791     1.0  0.61849  0.74756  0.05304  1.0000
  C   C1792     1.0  0.53771  0.77946  0.06129  1.0000
  N   N441      1.0  0.57009  0.69363  0.07072  1.0000
  N   N442      1.0  0.55076  0.68116  0.07986  1.0000
  N   N443      1.0  0.54468  0.70574  0.07756  1.0000
  N   N444      1.0  0.59421  0.70017  0.06754  1.0000
  N   N445      1.0  0.52931  0.72725  0.07626  1.0000
  N   N446      1.0  0.55343  0.73379  0.07308  1.0000
  N   N447      1.0  0.57884  0.72167  0.06625  1.0000
  N   N448      1.0  0.57276  0.74626  0.06395  1.0000
  Zn  Zn56      1.0  0.56176  0.71371  0.07190  1.0000
  Br  Br897     1.0  0.61035  0.63762  0.40628  1.0000
  Br  Br898     1.0  0.62798  0.62875  0.43449  1.0000
  Br  Br899     1.0  0.63844  0.65315  0.45654  1.0000
  Br  Br900     1.0  0.63028  0.68571  0.45162  1.0000
  Br  Br901     1.0  0.62981  0.71744  0.44858  1.0000
  Br  Br902     1.0  0.63636  0.75059  0.45561  1.0000
  Br  Br903     1.0  0.62819  0.77487  0.43242  1.0000
  Br  Br904     1.0  0.61206  0.76655  0.40337  1.0000
  Br  Br905     1.0  0.59007  0.63835  0.38093  1.0000
  Br  Br906     1.0  0.59178  0.76729  0.37802  1.0000
  Br  Br907     1.0  0.57232  0.68747  0.33572  1.0000
  Br  Br908     1.0  0.57394  0.63003  0.35188  1.0000
  Br  Br909     1.0  0.57186  0.71919  0.33268  1.0000
  Br  Br910     1.0  0.57415  0.77615  0.34981  1.0000
  Br  Br911     1.0  0.56577  0.65432  0.32869  1.0000
  Br  Br912     1.0  0.56370  0.75175  0.32776  1.0000
  C   C1793     1.0  0.61291  0.68964  0.41949  1.0000
  C   C1794     1.0  0.61414  0.71442  0.41749  1.0000
  C   C1795     1.0  0.60705  0.73076  0.40166  1.0000
  C   C1796     1.0  0.60551  0.67321  0.40523  1.0000
  C   C1797     1.0  0.61767  0.67638  0.42573  1.0000
  C   C1798     1.0  0.61296  0.66577  0.41653  1.0000
  C   C1799     1.0  0.61568  0.65147  0.41903  1.0000
  C   C1800     1.0  0.62361  0.64771  0.43109  1.0000
  C   C1801     1.0  0.62827  0.65832  0.44038  1.0000
  C   C1802     1.0  0.62533  0.67277  0.43779  1.0000
  C   C1803     1.0  0.61727  0.72808  0.42353  1.0000
  C   C1804     1.0  0.62421  0.73125  0.43603  1.0000
  C   C1805     1.0  0.62707  0.74553  0.43893  1.0000
  C   C1806     1.0  0.62346  0.75598  0.42890  1.0000
  C   C1807     1.0  0.61586  0.75253  0.41648  1.0000
  C   C1808     1.0  0.61288  0.73832  0.41375  1.0000
  C   C1809     1.0  0.59508  0.67415  0.38264  1.0000
  C   C1810     1.0  0.59662  0.73169  0.37907  1.0000
  C   C1811     1.0  0.58925  0.66658  0.37055  1.0000
  C   C1812     1.0  0.58922  0.71526  0.36481  1.0000
  C   C1813     1.0  0.58799  0.69048  0.36681  1.0000
  C   C1814     1.0  0.58918  0.73913  0.36777  1.0000
  C   C1815     1.0  0.58486  0.67683  0.36077  1.0000
  C   C1816     1.0  0.58627  0.65238  0.36782  1.0000
  C   C1817     1.0  0.58446  0.72852  0.35857  1.0000
  C   C1818     1.0  0.58645  0.75344  0.36527  1.0000
  C   C1819     1.0  0.57792  0.67366  0.34827  1.0000
  C   C1820     1.0  0.57868  0.64892  0.35540  1.0000
  C   C1821     1.0  0.57680  0.73213  0.34651  1.0000
  C   C1822     1.0  0.57852  0.75720  0.35321  1.0000
  C   C1823     1.0  0.57506  0.65937  0.34538  1.0000
  C   C1824     1.0  0.57386  0.74658  0.34392  1.0000
  N   N449      1.0  0.60511  0.68759  0.40754  1.0000
  N   N450      1.0  0.61683  0.70223  0.42370  1.0000
  N   N451      1.0  0.60831  0.71619  0.40423  1.0000
  N   N452      1.0  0.60072  0.66706  0.39364  1.0000
  N   N453      1.0  0.60141  0.73785  0.39067  1.0000
  N   N454      1.0  0.59702  0.71731  0.37676  1.0000
  N   N455      1.0  0.59382  0.68871  0.38007  1.0000
  N   N456      1.0  0.58530  0.70267  0.36060  1.0000
  Zn  Zn57      1.0  0.60107  0.70245  0.39215  1.0000
  Br  Br913     1.0  0.41802  0.49794  0.37619  1.0000
  Br  Br914     1.0  0.42863  0.50007  0.34351  1.0000
  Br  Br915     1.0  0.44004  0.47181  0.32732  1.0000
  Br  Br916     1.0  0.43955  0.44156  0.34267  1.0000
  Br  Br917     1.0  0.44601  0.41262  0.35436  1.0000
  Br  Br918     1.0  0.45788  0.38024  0.35550  1.0000
  Br  Br919     1.0  0.45870  0.36343  0.38569  1.0000
  Br  Br920     1.0  0.44621  0.37792  0.41409  1.0000
  Br  Br921     1.0  0.40274  0.50219  0.40453  1.0000
  Br  Br922     1.0  0.43093  0.38217  0.44243  1.0000
  Br  Br923     1.0  0.40294  0.46749  0.46426  1.0000
  Br  Br924     1.0  0.39025  0.51669  0.43293  1.0000
  Br  Br925     1.0  0.40941  0.43855  0.47595  1.0000
  Br  Br926     1.0  0.42032  0.38004  0.47511  1.0000
  Br  Br927     1.0  0.39107  0.49988  0.46312  1.0000
  Br  Br928     1.0  0.40891  0.40830  0.49130  1.0000
  C   C1825     1.0  0.42884  0.44533  0.37760  1.0000
  C   C1826     1.0  0.43537  0.42284  0.38605  1.0000
  C   C1827     1.0  0.43441  0.41137  0.40691  1.0000
  C   C1828     1.0  0.42071  0.46412  0.38803  1.0000
  C   C1829     1.0  0.42974  0.45654  0.36708  1.0000
  C   C1830     1.0  0.42455  0.46868  0.37379  1.0000
  C   C1831     1.0  0.42388  0.48174  0.36692  1.0000
  C   C1832     1.0  0.42879  0.48268  0.35286  1.0000
  C   C1833     1.0  0.43392  0.47050  0.34608  1.0000
  C   C1834     1.0  0.43442  0.45730  0.35313  1.0000
  C   C1835     1.0  0.44016  0.40858  0.38347  1.0000
  C   C1836     1.0  0.44545  0.40273  0.37114  1.0000
  C   C1837     1.0  0.45062  0.38881  0.37175  1.0000
  C   C1838     1.0  0.45089  0.38158  0.38479  1.0000
  C   C1839     1.0  0.44489  0.38759  0.39712  1.0000
  C   C1840     1.0  0.43959  0.40136  0.39641  1.0000
  C   C1841     1.0  0.41454  0.46874  0.41171  1.0000
  C   C1842     1.0  0.42824  0.41599  0.43059  1.0000
  C   C1843     1.0  0.40936  0.47876  0.42221  1.0000
  C   C1844     1.0  0.42011  0.43479  0.44102  1.0000
  C   C1845     1.0  0.41358  0.45728  0.43257  1.0000
  C   C1846     1.0  0.42440  0.41143  0.44483  1.0000
  C   C1847     1.0  0.40879  0.47153  0.43515  1.0000
  C   C1848     1.0  0.40406  0.49253  0.42150  1.0000
  C   C1849     1.0  0.41921  0.42357  0.45154  1.0000
  C   C1850     1.0  0.42507  0.39837  0.45170  1.0000
  C   C1851     1.0  0.40350  0.47739  0.44748  1.0000
  C   C1852     1.0  0.39806  0.49853  0.43382  1.0000
  C   C1853     1.0  0.41453  0.42282  0.46549  1.0000
  C   C1854     1.0  0.42016  0.39743  0.46575  1.0000
  C   C1855     1.0  0.39833  0.49130  0.44687  1.0000
  C   C1856     1.0  0.41503  0.40962  0.47254  1.0000
  N   N457      1.0  0.42285  0.44983  0.38992  1.0000
  N   N458      1.0  0.43448  0.43276  0.37629  1.0000
  N   N459      1.0  0.43227  0.42444  0.40022  1.0000
  N   N460      1.0  0.41674  0.47281  0.39823  1.0000
  N   N461      1.0  0.43221  0.40730  0.42038  1.0000
  N   N462      1.0  0.42610  0.43028  0.42870  1.0000
  N   N463      1.0  0.41668  0.45567  0.41840  1.0000
  N   N464      1.0  0.41447  0.44736  0.44233  1.0000
  Zn  Zn58      1.0  0.42447  0.44006  0.40931  1.0000
  Br  Br929     1.0  0.72282  0.26244  0.09759  1.0000
  Br  Br930     1.0  0.75669  0.26412  0.09168  1.0000
  Br  Br931     1.0  0.77382  0.23579  0.08194  1.0000
  Br  Br932     1.0  0.75748  0.20655  0.07660  1.0000
  Br  Br933     1.0  0.74773  0.17621  0.07560  1.0000
  Br  Br934     1.0  0.74949  0.14188  0.07260  1.0000
  Br  Br935     1.0  0.72192  0.12263  0.08054  1.0000
  Br  Br936     1.0  0.69236  0.13737  0.08961  1.0000
  Br  Br937     1.0  0.69112  0.26892  0.10033  1.0000
  Br  Br938     1.0  0.66065  0.14385  0.09234  1.0000
  Br  Br939     1.0  0.63574  0.23007  0.11433  1.0000
  Br  Br940     1.0  0.66156  0.28366  0.10939  1.0000
  Br  Br941     1.0  0.62600  0.19974  0.11333  1.0000
  Br  Br942     1.0  0.62678  0.14216  0.09825  1.0000
  Br  Br943     1.0  0.63398  0.26441  0.11733  1.0000
  Br  Br944     1.0  0.60966  0.17050  0.10799  1.0000
  C   C1857     1.0  0.72209  0.21002  0.08582  1.0000
  C   C1858     1.0  0.71579  0.18593  0.08594  1.0000
  C   C1859     1.0  0.69603  0.17336  0.09028  1.0000
  C   C1860     1.0  0.71075  0.22911  0.09172  1.0000
  C   C1861     1.0  0.73273  0.22116  0.08613  1.0000
  C   C1862     1.0  0.72545  0.23347  0.08997  1.0000
  C   C1863     1.0  0.73231  0.24647  0.09146  1.0000
  C   C1864     1.0  0.74705  0.24707  0.08921  1.0000
  C   C1865     1.0  0.75436  0.23476  0.08526  1.0000
  C   C1866     1.0  0.74725  0.22167  0.08367  1.0000
  C   C1867     1.0  0.71907  0.17135  0.08285  1.0000
  C   C1868     1.0  0.73188  0.16541  0.07898  1.0000
  C   C1869     1.0  0.73256  0.15062  0.07781  1.0000
  C   C1870     1.0  0.72060  0.14236  0.08119  1.0000
  C   C1871     1.0  0.70748  0.14872  0.08455  1.0000
  C   C1872     1.0  0.70681  0.16344  0.08552  1.0000
  C   C1873     1.0  0.68745  0.23293  0.09965  1.0000
  C   C1874     1.0  0.67273  0.17718  0.09821  1.0000
  C   C1875     1.0  0.67667  0.24285  0.10441  1.0000
  C   C1876     1.0  0.66139  0.19627  0.10411  1.0000
  C   C1877     1.0  0.66769  0.22036  0.10399  1.0000
  C   C1878     1.0  0.65802  0.17282  0.09996  1.0000
  C   C1879     1.0  0.66441  0.23493  0.10708  1.0000
  C   C1880     1.0  0.67600  0.25757  0.10538  1.0000
  C   C1881     1.0  0.65074  0.18513  0.10380  1.0000
  C   C1882     1.0  0.65117  0.15982  0.09847  1.0000
  C   C1883     1.0  0.65160  0.24088  0.11095  1.0000
  C   C1884     1.0  0.66287  0.26393  0.10874  1.0000
  C   C1885     1.0  0.63622  0.18462  0.10626  1.0000
  C   C1886     1.0  0.63643  0.15921  0.10072  1.0000
  C   C1887     1.0  0.65091  0.25567  0.11212  1.0000
  C   C1888     1.0  0.62912  0.17153  0.10467  1.0000
  N   N465      1.0  0.70885  0.21501  0.08859  1.0000
  N   N466      1.0  0.72480  0.19649  0.08466  1.0000
  N   N467      1.0  0.70203  0.18693  0.09069  1.0000
  N   N468      1.0  0.70068  0.23738  0.09677  1.0000
  N   N469      1.0  0.68280  0.16891  0.09316  1.0000
  N   N470      1.0  0.67463  0.19128  0.10134  1.0000
  N   N471      1.0  0.68145  0.21936  0.09924  1.0000
  N   N472      1.0  0.65867  0.20980  0.10527  1.0000
  Zn  Zn59      1.0  0.69174  0.20314  0.09497  1.0000
  Br  Br945     1.0  0.87034  0.60081  0.27374  1.0000
  Br  Br946     1.0  0.84503  0.62358  0.27885  1.0000
  Br  Br947     1.0  0.81945  0.61613  0.30079  1.0000
  Br  Br948     1.0  0.81965  0.58726  0.31860  1.0000
  Br  Br949     1.0  0.81269  0.55978  0.33318  1.0000
  Br  Br950     1.0  0.79484  0.53667  0.35157  1.0000
  Br  Br951     1.0  0.80562  0.50386  0.35280  1.0000
  Br  Br952     1.0  0.83476  0.49447  0.33745  1.0000
  Br  Br953     1.0  0.89884  0.58643  0.26775  1.0000
  Br  Br954     1.0  0.86326  0.48009  0.33147  1.0000
  Br  Br955     1.0  0.92090  0.52112  0.27203  1.0000
  Br  Br956     1.0  0.92798  0.57704  0.25241  1.0000
  Br  Br957     1.0  0.91395  0.49364  0.28661  1.0000
  Br  Br958     1.0  0.88856  0.45732  0.32636  1.0000
  Br  Br959     1.0  0.93875  0.54423  0.25364  1.0000
  Br  Br960     1.0  0.91415  0.46477  0.30442  1.0000
  C   C1889     1.0  0.84787  0.56620  0.30816  1.0000
  C   C1890     1.0  0.84092  0.54487  0.31895  1.0000
  C   C1891     1.0  0.84963  0.52275  0.32047  1.0000
  C   C1892     1.0  0.86513  0.57158  0.29397  1.0000
  C   C1893     1.0  0.84465  0.58036  0.30299  1.0000
  C   C1894     1.0  0.85574  0.58383  0.29381  1.0000
  C   C1895     1.0  0.85623  0.59675  0.28666  1.0000
  C   C1896     1.0  0.84507  0.60644  0.28866  1.0000
  C   C1897     1.0  0.83398  0.60302  0.29794  1.0000
  C   C1898     1.0  0.83368  0.58994  0.30521  1.0000
  C   C1899     1.0  0.83177  0.53717  0.32842  1.0000
  C   C1900     1.0  0.81934  0.54154  0.33481  1.0000
  C   C1901     1.0  0.81168  0.53150  0.34263  1.0000
  C   C1902     1.0  0.81642  0.51737  0.34318  1.0000
  C   C1903     1.0  0.82945  0.51330  0.33704  1.0000
  C   C1904     1.0  0.83712  0.52337  0.32943  1.0000
  C   C1905     1.0  0.88397  0.55816  0.28474  1.0000
  C   C1906     1.0  0.86846  0.50933  0.31124  1.0000
  C   C1907     1.0  0.89648  0.55753  0.27578  1.0000
  C   C1908     1.0  0.88573  0.51470  0.29705  1.0000
  C   C1909     1.0  0.89268  0.53603  0.28626  1.0000
  C   C1910     1.0  0.87786  0.49708  0.31140  1.0000
  C   C1911     1.0  0.90183  0.54373  0.27679  1.0000
  C   C1912     1.0  0.90415  0.56760  0.26817  1.0000
  C   C1913     1.0  0.88895  0.50055  0.30222  1.0000
  C   C1914     1.0  0.87737  0.48415  0.31855  1.0000
  C   C1915     1.0  0.91425  0.53936  0.27040  1.0000
  C   C1916     1.0  0.91718  0.56354  0.26203  1.0000
  C   C1917     1.0  0.89992  0.49097  0.30000  1.0000
  C   C1918     1.0  0.88853  0.47446  0.31655  1.0000
  C   C1919     1.0  0.92192  0.54940  0.26258  1.0000
  C   C1920     1.0  0.89962  0.47788  0.30727  1.0000
  N   N473      1.0  0.86047  0.56128  0.30317  1.0000
  N   N474      1.0  0.83918  0.55825  0.31542  1.0000
  N   N475      1.0  0.85140  0.53599  0.31401  1.0000
  N   N476      1.0  0.87615  0.57004  0.28551  1.0000
  N   N477      1.0  0.85744  0.51086  0.31970  1.0000
  N   N478      1.0  0.87313  0.51963  0.30204  1.0000
  N   N479      1.0  0.88220  0.54491  0.29120  1.0000
  N   N480      1.0  0.89442  0.52266  0.28979  1.0000
  Zn  Zn60      1.0  0.86680  0.54045  0.30260  1.0000
  Br  Br961     1.0  0.30073  0.16555  0.25581  1.0000
  Br  Br962     1.0  0.32459  0.16744  0.23106  1.0000
  Br  Br963     1.0  0.35189  0.18815  0.23512  1.0000
  Br  Br964     1.0  0.35639  0.20559  0.26387  1.0000
  Br  Br965     1.0  0.36209  0.22760  0.28621  1.0000
  Br  Br966     1.0  0.37752  0.25395  0.30229  1.0000
  Br  Br967     1.0  0.36220  0.26858  0.32960  1.0000
  Br  Br968     1.0  0.33281  0.25605  0.34193  1.0000
  Br  Br969     1.0  0.27755  0.15573  0.27632  1.0000
  Br  Br970     1.0  0.30962  0.24623  0.36244  1.0000
  Br  Br971     1.0  0.24827  0.18418  0.33204  1.0000
  Br  Br972     1.0  0.24815  0.14320  0.28864  1.0000
  Br  Br973     1.0  0.25397  0.20619  0.35437  1.0000
  Br  Br974     1.0  0.28577  0.24433  0.38719  1.0000
  Br  Br975     1.0  0.23284  0.15783  0.31595  1.0000
  Br  Br976     1.0  0.25847  0.22362  0.38312  1.0000
  C   C1921     1.0  0.32742  0.20111  0.28600  1.0000
  C   C1922     1.0  0.33215  0.21937  0.30224  1.0000
  C   C1923     1.0  0.32171  0.22811  0.32179  1.0000
  C   C1924     1.0  0.30961  0.18681  0.28339  1.0000
  C   C1925     1.0  0.32958  0.19435  0.27232  1.0000
  C   C1926     1.0  0.31809  0.18517  0.27059  1.0000
  C   C1927     1.0  0.31648  0.17684  0.25849  1.0000
  C   C1928     1.0  0.32667  0.17795  0.24765  1.0000
  C   C1929     1.0  0.33826  0.18708  0.24940  1.0000
  C   C1930     1.0  0.33983  0.19537  0.26178  1.0000
  C   C1931     1.0  0.34151  0.23003  0.30785  1.0000
  C   C1932     1.0  0.35405  0.23514  0.30227  1.0000
  C   C1933     1.0  0.36056  0.24655  0.30921  1.0000
  C   C1934     1.0  0.35394  0.25278  0.32104  1.0000
  C   C1935     1.0  0.34143  0.24699  0.32687  1.0000
  C   C1936     1.0  0.33509  0.23553  0.32003  1.0000
  C   C1937     1.0  0.28865  0.18367  0.29646  1.0000
  C   C1938     1.0  0.30075  0.22496  0.33486  1.0000
  C   C1939     1.0  0.27527  0.17624  0.29821  1.0000
  C   C1940     1.0  0.28294  0.21067  0.33225  1.0000
  C   C1941     1.0  0.27821  0.19241  0.31601  1.0000
  C   C1942     1.0  0.29227  0.22661  0.34766  1.0000
  C   C1943     1.0  0.26885  0.18175  0.31040  1.0000
  C   C1944     1.0  0.26893  0.16479  0.29137  1.0000
  C   C1945     1.0  0.28078  0.21743  0.34593  1.0000
  C   C1946     1.0  0.29388  0.23493  0.35976  1.0000
  C   C1947     1.0  0.25631  0.17664  0.31597  1.0000
  C   C1948     1.0  0.25642  0.15900  0.29721  1.0000
  C   C1949     1.0  0.27053  0.21641  0.35647  1.0000
  C   C1950     1.0  0.28369  0.23383  0.37060  1.0000
  C   C1951     1.0  0.24980  0.16523  0.30904  1.0000
  C   C1952     1.0  0.27210  0.22470  0.36884  1.0000
  N   N481      1.0  0.31575  0.19607  0.29281  1.0000
  N   N482      1.0  0.33468  0.21189  0.29075  1.0000
  N   N483      1.0  0.32016  0.21857  0.31053  1.0000
  N   N484      1.0  0.29703  0.18102  0.28524  1.0000
  N   N485      1.0  0.31333  0.23076  0.33301  1.0000
  N   N486      1.0  0.29461  0.21571  0.32543  1.0000
  N   N487      1.0  0.29020  0.19321  0.30771  1.0000
  N   N488      1.0  0.27568  0.19989  0.32749  1.0000
  Zn  Zn61      1.0  0.30518  0.20589  0.30912  1.0000
  Br  Br977     1.0  0.37977  0.93574  0.92172  1.0000
  Br  Br978     1.0  0.40082  0.96148  0.91281  1.0000
  Br  Br979     1.0  0.39238  0.98221  0.88654  1.0000
  Br  Br980     1.0  0.36284  0.97855  0.87028  1.0000
  Br  Br981     1.0  0.33935  0.97579  0.84891  1.0000
  Br  Br982     1.0  0.32055  0.98215  0.82067  1.0000
  Br  Br983     1.0  0.29532  0.96030  0.81170  1.0000
  Br  Br984     1.0  0.28763  0.93344  0.83150  1.0000
  Br  Br985     1.0  0.36302  0.91311  0.93792  1.0000
  Br  Br986     1.0  0.27088  0.91081  0.84770  1.0000
  Br  Br987     1.0  0.31130  0.87076  0.92051  1.0000
  Br  Br988     1.0  0.35533  0.88625  0.95772  1.0000
  Br  Br989     1.0  0.28782  0.86800  0.89914  1.0000
  Br  Br990     1.0  0.24983  0.88507  0.85660  1.0000
  Br  Br991     1.0  0.33010  0.86440  0.94874  1.0000
  Br  Br992     1.0  0.25827  0.86434  0.88287  1.0000
  C   C1953     1.0  0.34518  0.94886  0.88275  1.0000
  C   C1954     1.0  0.32796  0.94686  0.86488  1.0000
  C   C1955     1.0  0.30987  0.93214  0.86002  1.0000
  C   C1956     1.0  0.35066  0.93552  0.90065  1.0000
  C   C1957     1.0  0.35858  0.95437  0.88798  1.0000
  C   C1958     1.0  0.36216  0.94576  0.89949  1.0000
  C   C1959     1.0  0.37459  0.94781  0.90723  1.0000
  C   C1960     1.0  0.38383  0.95877  0.90312  1.0000
  C   C1961     1.0  0.38021  0.96748  0.89164  1.0000
  C   C1962     1.0  0.36753  0.96536  0.88396  1.0000
  C   C1963     1.0  0.32080  0.95256  0.85267  1.0000
  C   C1964     1.0  0.32440  0.96412  0.84444  1.0000
  C   C1965     1.0  0.31631  0.96672  0.83225  1.0000
  C   C1966     1.0  0.30539  0.95729  0.82847  1.0000
  C   C1967     1.0  0.30154  0.94589  0.83737  1.0000
  C   C1968     1.0  0.30951  0.94346  0.84957  1.0000
  C   C1969     1.0  0.34079  0.91441  0.90940  1.0000
  C   C1970     1.0  0.29999  0.91103  0.86877  1.0000
  C   C1971     1.0  0.34115  0.90310  0.91985  1.0000
  C   C1972     1.0  0.30548  0.89770  0.88667  1.0000
  C   C1973     1.0  0.32270  0.89969  0.90453  1.0000
  C   C1974     1.0  0.28849  0.90079  0.86993  1.0000
  C   C1975     1.0  0.32986  0.89399  0.91675  1.0000
  C   C1976     1.0  0.34911  0.90066  0.93205  1.0000
  C   C1977     1.0  0.29207  0.89219  0.88144  1.0000
  C   C1978     1.0  0.27607  0.89874  0.86219  1.0000
  C   C1979     1.0  0.32625  0.88244  0.92498  1.0000
  C   C1980     1.0  0.34527  0.88926  0.94095  1.0000
  C   C1981     1.0  0.28313  0.88119  0.88546  1.0000
  C   C1982     1.0  0.26682  0.88778  0.86630  1.0000
  C   C1983     1.0  0.33434  0.87983  0.93716  1.0000
  C   C1984     1.0  0.27044  0.87907  0.87778  1.0000
  N   N489      1.0  0.34022  0.93795  0.89078  1.0000
  N   N490      1.0  0.33916  0.95261  0.87087  1.0000
  N   N491      1.0  0.32147  0.93444  0.86897  1.0000
  N   N492      1.0  0.35077  0.92457  0.90933  1.0000
  N   N493      1.0  0.29989  0.92198  0.86009  1.0000
  N   N494      1.0  0.31044  0.90860  0.87864  1.0000
  N   N495      1.0  0.32918  0.91211  0.90045  1.0000
  N   N496      1.0  0.31150  0.89394  0.89855  1.0000
  Zn  Zn62      1.0  0.32533  0.92328  0.88471  1.0000
  Br  Br993     1.0  0.74978  0.48886  0.36326  1.0000
  Br  Br994     1.0  0.74027  0.47160  0.33503  1.0000
  Br  Br995     1.0  0.71545  0.48434  0.31471  1.0000
  Br  Br996     1.0  0.70128  0.51444  0.32131  1.0000
  Br  Br997     1.0  0.68162  0.53905  0.32619  1.0000
  Br  Br998     1.0  0.65509  0.56057  0.32127  1.0000
  Br  Br999     1.0  0.64722  0.58379  0.34563  1.0000
  Br  Br1000    1.0  0.66656  0.58684  0.37373  1.0000
  Br  Br1001    1.0  0.76634  0.50164  0.38810  1.0000
  Br  Br1002    1.0  0.68313  0.59962  0.39857  1.0000
  Br  Br1003    1.0  0.75129  0.54943  0.43565  1.0000
  Br  Br1004    1.0  0.78568  0.50469  0.41620  1.0000
  Br  Br1005    1.0  0.73162  0.57404  0.44052  1.0000
  Br  Br1006    1.0  0.69264  0.61688  0.42680  1.0000
  Br  Br1007    1.0  0.77781  0.52791  0.44056  1.0000
  Br  Br1008    1.0  0.71745  0.60415  0.44712  1.0000
  C   C1985     1.0  0.71395  0.52762  0.35317  1.0000
  C   C1986     1.0  0.69734  0.54583  0.35665  1.0000
  C   C1987     1.0  0.69330  0.56247  0.37322  1.0000
  C   C1988     1.0  0.73091  0.51930  0.36626  1.0000
  C   C1989     1.0  0.71838  0.51456  0.34630  1.0000
  C   C1990     1.0  0.72927  0.50915  0.35474  1.0000
  C   C1991     1.0  0.73614  0.49648  0.35148  1.0000
  C   C1992     1.0  0.73176  0.48887  0.33942  1.0000
  C   C1993     1.0  0.72089  0.49433  0.33088  1.0000
  C   C1994     1.0  0.71410  0.50725  0.33424  1.0000
  C   C1995     1.0  0.68590  0.55451  0.35149  1.0000
  C   C1996     1.0  0.67785  0.55289  0.33938  1.0000
  C   C1997     1.0  0.66639  0.56213  0.33740  1.0000
  C   C1998     1.0  0.66309  0.57218  0.34792  1.0000
  C   C1999     1.0  0.67183  0.57402  0.35992  1.0000
  C   C2000     1.0  0.68331  0.56491  0.36175  1.0000
  C   C2001     1.0  0.73960  0.52601  0.38861  1.0000
  C   C2002     1.0  0.70200  0.56919  0.39557  1.0000
  C   C2003     1.0  0.74959  0.52357  0.40008  1.0000
  C   C2004     1.0  0.71895  0.56086  0.40866  1.0000
  C   C2005     1.0  0.73556  0.54265  0.40518  1.0000
  C   C2006     1.0  0.70363  0.57933  0.40709  1.0000
  C   C2007     1.0  0.74700  0.53397  0.41034  1.0000
  C   C2008     1.0  0.76107  0.51447  0.40191  1.0000
  C   C2009     1.0  0.71453  0.57392  0.41553  1.0000
  C   C2010     1.0  0.69676  0.59201  0.41035  1.0000
  C   C2011     1.0  0.75506  0.53560  0.42245  1.0000
  C   C2012     1.0  0.76982  0.51630  0.41392  1.0000
  C   C2013     1.0  0.71880  0.58123  0.42759  1.0000
  C   C2014     1.0  0.70115  0.59961  0.42241  1.0000
  C   C2015     1.0  0.76651  0.52635  0.42444  1.0000
  C   C2016     1.0  0.71201  0.59415  0.43095  1.0000
  N   N497      1.0  0.72193  0.53068  0.36479  1.0000
  N   N498      1.0  0.70269  0.53492  0.34981  1.0000
  N   N499      1.0  0.70145  0.55054  0.36985  1.0000
  N   N500      1.0  0.73916  0.51728  0.37736  1.0000
  N   N501      1.0  0.69374  0.57120  0.38447  1.0000
  N   N502      1.0  0.71097  0.55780  0.39704  1.0000
  N   N503      1.0  0.73145  0.53795  0.39198  1.0000
  N   N504      1.0  0.73022  0.55356  0.41202  1.0000
  Zn  Zn63      1.0  0.71645  0.54424  0.38092  1.0000
  Br  Br1009    1.0  0.46251  0.06702  0.03268  1.0000
  Br  Br1010    1.0  0.45541  0.03851  0.01474  1.0000
  Br  Br1011    1.0  0.47987  0.01458  0.01021  1.0000
  Br  Br1012    1.0  0.51045  0.01803  0.02448  1.0000
  Br  Br1013    1.0  0.54160  0.01925  0.03112  1.0000
  Br  Br1014    1.0  0.57485  0.01001  0.03158  1.0000
  Br  Br1015    1.0  0.59855  0.03215  0.04350  1.0000
  Br  Br1016    1.0  0.58918  0.06241  0.05652  1.0000
  Br  Br1017    1.0  0.46094  0.09329  0.05171  1.0000
  Br  Br1018    1.0  0.58761  0.08868  0.07555  1.0000
  Br  Br1019    1.0  0.50852  0.13645  0.07710  1.0000
  Br  Br1020    1.0  0.45158  0.12355  0.06472  1.0000
  Br  Br1021    1.0  0.53967  0.13768  0.08374  1.0000
  Br  Br1022    1.0  0.59471  0.11719  0.09348  1.0000
  Br  Br1023    1.0  0.47528  0.14569  0.07665  1.0000
  Br  Br1024    1.0  0.57025  0.14112  0.09801  1.0000
  C   C2017     1.0  0.51303  0.05072  0.04103  1.0000
  C   C2018     1.0  0.53765  0.05123  0.04466  1.0000
  C   C2019     1.0  0.55329  0.06643  0.05425  1.0000
  C   C2020     1.0  0.49645  0.06626  0.04446  1.0000
  C   C2021     1.0  0.50057  0.04502  0.03397  1.0000
  C   C2022     1.0  0.48989  0.05505  0.03612  1.0000
  C   C2023     1.0  0.47626  0.05324  0.03070  1.0000
  C   C2024     1.0  0.47333  0.04102  0.02266  1.0000
  C   C2025     1.0  0.48401  0.03091  0.02057  1.0000
  C   C2026     1.0  0.49774  0.03281  0.02622  1.0000
  C   C2027     1.0  0.55122  0.04425  0.04455  1.0000
  C   C2028     1.0  0.55485  0.03126  0.03887  1.0000
  C   C2029     1.0  0.56920  0.02740  0.03902  1.0000
  C   C2030     1.0  0.57937  0.03698  0.04425  1.0000
  C   C2031     1.0  0.57533  0.04995  0.05052  1.0000
  C   C2032     1.0  0.56103  0.05365  0.05051  1.0000
  C   C2033     1.0  0.49683  0.08927  0.05397  1.0000
  C   C2034     1.0  0.55367  0.08944  0.06377  1.0000
  C   C2035     1.0  0.48909  0.10205  0.05772  1.0000
  C   C2036     1.0  0.53710  0.10498  0.06720  1.0000
  C   C2037     1.0  0.51247  0.10447  0.06356  1.0000
  C   C2038     1.0  0.56024  0.10065  0.07210  1.0000
  C   C2039     1.0  0.49890  0.11144  0.06367  1.0000
  C   C2040     1.0  0.47479  0.10575  0.05770  1.0000
  C   C2041     1.0  0.54955  0.11068  0.07426  1.0000
  C   C2042     1.0  0.57387  0.10246  0.07752  1.0000
  C   C2043     1.0  0.49528  0.12444  0.06935  1.0000
  C   C2044     1.0  0.47075  0.11872  0.06397  1.0000
  C   C2045     1.0  0.55238  0.12289  0.08200  1.0000
  C   C2046     1.0  0.57680  0.11467  0.08556  1.0000
  C   C2047     1.0  0.48093  0.12830  0.06920  1.0000
  C   C2048     1.0  0.56612  0.12479  0.08766  1.0000
  N   N505      1.0  0.51029  0.06315  0.04780  1.0000
  N   N506      1.0  0.52584  0.04560  0.03985  1.0000
  N   N507      1.0  0.53912  0.06465  0.05022  1.0000
  N   N508      1.0  0.49027  0.07842  0.04747  1.0000
  N   N509      1.0  0.55986  0.07727  0.06075  1.0000
  N   N510      1.0  0.53983  0.09255  0.06043  1.0000
  N   N511      1.0  0.51100  0.09105  0.05801  1.0000
  N   N512      1.0  0.52428  0.11010  0.06837  1.0000
  Zn  Zn64      1.0  0.52506  0.07785  0.05411  1.0000
