data_test
_audit_creation_date              2024-04-26
_audit_creation_method            'Materials Studio'
_symmetry_space_group_name_H-M    'P1'
_symmetry_Int_Tables_number       1
_symmetry_cell_setting            triclinic
loop_
_symmetry_equiv_pos_as_xyz
  x,y,z
_cell_length_a                    34.4048
_cell_length_b                    36.6251
_cell_length_c                    36.1593
_cell_angle_alpha                 90.0000
_cell_angle_beta                  90.0000
_cell_angle_gamma                 109.6020
loop_
_atom_site_label
_atom_site_type_symbol
_atom_site_fract_x
_atom_site_fract_y
_atom_site_fract_z
_atom_site_U_iso_or_equiv
_atom_site_adp_type
_atom_site_occupancy
Si1    Si    0.05659   0.15667   0.16088   0.00000  Uiso   1.00
Si2    Si    0.05349   0.03702   0.17939   0.00000  Uiso   1.00
O1     O     0.07453   0.13617   0.19622   0.00000  Uiso   1.00
O2     O     0.03463   0.18862   0.17822   0.00000  Uiso   1.00
O3     O     0.01495   0.11939   0.14261   0.00000  Uiso   1.00
O4     O     0.03211   0.05394   0.14409   0.00000  Uiso   1.00
Si3    Si    0.05348   0.23701   0.17940   0.00000  Uiso   1.00
Si4    Si    0.13928   0.07281   0.13828   0.00000  Uiso   1.00
O5     O     0.10410   0.05191   0.17233   0.00000  Uiso   1.00
Si5    Si    0.19931   0.15667   0.16111   0.00000  Uiso   1.00
Si6    Si    0.19641   0.03714   0.17950   0.00000  Uiso   1.00
Si7    Si    0.28214   0.07281   0.13828   0.00000  Uiso   1.00
O6     O     0.21733   0.13603   0.19628   0.00000  Uiso   1.00
O7     O     0.17767   0.18870   0.17870   0.00000  Uiso   1.00
O8     O     0.24703   0.05191   0.17241   0.00000  Uiso   1.00
O9     O     0.15781   0.11939   0.14261   0.00000  Uiso   1.00
O10    O     0.17497   0.05394   0.14409   0.00000  Uiso   1.00
Si8    Si    0.19641   0.23714   0.17950   0.00000  Uiso   1.00
O11    O     0.32055   0.18867   0.17875   0.00000  Uiso   1.00
O12    O     0.30067   0.11939   0.14261   0.00000  Uiso   1.00
Si9    Si    0.33923   0.23711   0.17946   0.00000  Uiso   1.00
Si10   Si    0.34208   0.15651   0.16128   0.00000  Uiso   1.00
Si11   Si    0.33923   0.03711   0.17946   0.00000  Uiso   1.00
Si12   Si    0.42500   0.07281   0.13828   0.00000  Uiso   1.00
O13    O     0.36002   0.13576   0.19641   0.00000  Uiso   1.00
O14    O     0.38984   0.05183   0.17236   0.00000  Uiso   1.00
O15    O     0.31783   0.05394   0.14409   0.00000  Uiso   1.00
Si13   Si    0.48498   0.15650   0.16131   0.00000  Uiso   1.00
Si14   Si    0.48211   0.03714   0.17946   0.00000  Uiso   1.00
O16    O     0.46344   0.18872   0.17863   0.00000  Uiso   1.00
O17    O     0.44352   0.11939   0.14261   0.00000  Uiso   1.00
O18    O     0.46068   0.05394   0.14409   0.00000  Uiso   1.00
Si15   Si    0.48211   0.23714   0.17947   0.00000  Uiso   1.00
Si16   Si    0.05660   0.35667   0.16089   0.00000  Uiso   1.00
Si17   Si    0.13928   0.27281   0.13828   0.00000  Uiso   1.00
O19    O     0.07453   0.33615   0.19623   0.00000  Uiso   1.00
O20    O     0.03465   0.38863   0.17822   0.00000  Uiso   1.00
O21    O     0.10410   0.25191   0.17233   0.00000  Uiso   1.00
O22    O     0.01495   0.31939   0.14261   0.00000  Uiso   1.00
O23    O     0.03211   0.25394   0.14409   0.00000  Uiso   1.00
Si18   Si    0.05349   0.43701   0.17939   0.00000  Uiso   1.00
Si19   Si    0.13928   0.47281   0.13828   0.00000  Uiso   1.00
O24    O     0.10410   0.45192   0.17233   0.00000  Uiso   1.00
O25    O     0.03211   0.45394   0.14409   0.00000  Uiso   1.00
O26    O     0.17766   0.38870   0.17868   0.00000  Uiso   1.00
O27    O     0.15781   0.31939   0.14261   0.00000  Uiso   1.00
Si20   Si    0.19640   0.43713   0.17950   0.00000  Uiso   1.00
O28    O     0.17497   0.45394   0.14409   0.00000  Uiso   1.00
Si21   Si    0.19931   0.35666   0.16111   0.00000  Uiso   1.00
Si22   Si    0.28214   0.27281   0.13828   0.00000  Uiso   1.00
O29    O     0.21733   0.33604   0.19629   0.00000  Uiso   1.00
O30    O     0.24703   0.25191   0.17241   0.00000  Uiso   1.00
O31    O     0.17497   0.25394   0.14409   0.00000  Uiso   1.00
Si23   Si    0.28214   0.47281   0.13828   0.00000  Uiso   1.00
O32    O     0.24703   0.45191   0.17241   0.00000  Uiso   1.00
Si24   Si    0.34208   0.35651   0.16129   0.00000  Uiso   1.00
O33    O     0.36003   0.33576   0.19640   0.00000  Uiso   1.00
O34    O     0.32056   0.38867   0.17875   0.00000  Uiso   1.00
O35    O     0.30067   0.31939   0.14261   0.00000  Uiso   1.00
O36    O     0.31783   0.25394   0.14409   0.00000  Uiso   1.00
Si25   Si    0.33924   0.43711   0.17947   0.00000  Uiso   1.00
Si26   Si    0.42500   0.47281   0.13828   0.00000  Uiso   1.00
O37    O     0.38984   0.45183   0.17236   0.00000  Uiso   1.00
O38    O     0.31783   0.45394   0.14409   0.00000  Uiso   1.00
Si27   Si    0.42500   0.27281   0.13828   0.00000  Uiso   1.00
O39    O     0.38984   0.25182   0.17236   0.00000  Uiso   1.00
Si28   Si    0.48498   0.35650   0.16132   0.00000  Uiso   1.00
O40    O     0.46344   0.38873   0.17864   0.00000  Uiso   1.00
O41    O     0.44352   0.31939   0.14261   0.00000  Uiso   1.00
O42    O     0.46068   0.25394   0.14409   0.00000  Uiso   1.00
Si29   Si    0.48211   0.43715   0.17947   0.00000  Uiso   1.00
O43    O     0.46068   0.45394   0.14409   0.00000  Uiso   1.00
O44    O     0.04313   0.05169   0.22062   0.00000  Uiso   1.00
Si30   Si    0.01378   0.03045   0.25703   0.00000  Uiso   1.00
Si31   Si    0.01334   0.11224   0.27511   0.00000  Uiso   1.00
Si32   Si    0.09770   0.14748   0.23688   0.00000  Uiso   1.00
O45    O     0.04214   0.01545   0.28646   0.00000  Uiso   1.00
O46    O     0.06469   0.12926   0.27184   0.00000  Uiso   1.00
O47    O     0.11508   0.19519   0.24238   0.00000  Uiso   1.00
Si33   Si    0.01378   0.23045   0.25703   0.00000  Uiso   1.00
O48    O     0.04214   0.21543   0.28644   0.00000  Uiso   1.00
O49    O     0.00372   0.13187   0.31466   0.00000  Uiso   1.00
H1     H     0.02919   0.19149   0.30045   0.00000  Uiso   1.00
O50    O     0.14036   0.06435   0.27629   0.00000  Uiso   1.00
O51    O     0.13441   0.12738   0.23939   0.00000  Uiso   1.00
O52    O     0.14611   0.13198   0.31429   0.00000  Uiso   1.00
O53    O     0.18602   0.05198   0.22066   0.00000  Uiso   1.00
Si34   Si    0.15677   0.03063   0.25706   0.00000  Uiso   1.00
Si35   Si    0.15612   0.11232   0.27495   0.00000  Uiso   1.00
Si36   Si    0.24049   0.14756   0.23695   0.00000  Uiso   1.00
O54    O     0.18517   0.01576   0.28657   0.00000  Uiso   1.00
O55    O     0.28299   0.06438   0.27630   0.00000  Uiso   1.00
O56    O     0.20749   0.12937   0.27194   0.00000  Uiso   1.00
O57    O     0.25783   0.19529   0.24232   0.00000  Uiso   1.00
O58    O     0.27741   0.12769   0.23948   0.00000  Uiso   1.00
O59    O     0.28884   0.13196   0.31445   0.00000  Uiso   1.00
Si37   Si    0.15677   0.23063   0.25705   0.00000  Uiso   1.00
O60    O     0.18519   0.21577   0.28654   0.00000  Uiso   1.00
Si38   Si    0.29890   0.11239   0.27506   0.00000  Uiso   1.00
Si39   Si    0.29953   0.23071   0.25705   0.00000  Uiso   1.00
O61    O     0.32793   0.21575   0.28651   0.00000  Uiso   1.00
H2     H     0.11673   0.12620   0.31931   0.00000  Uiso   1.00
H3     H     0.25945   0.12606   0.31950   0.00000  Uiso   1.00
H4     H     0.17220   0.19189   0.30063   0.00000  Uiso   1.00
H5     H     0.31487   0.19198   0.30073   0.00000  Uiso   1.00
O62    O     0.32882   0.05194   0.22062   0.00000  Uiso   1.00
Si40   Si    0.29953   0.03071   0.25705   0.00000  Uiso   1.00
Si41   Si    0.38325   0.14734   0.23706   0.00000  Uiso   1.00
O63    O     0.32792   0.01576   0.28652   0.00000  Uiso   1.00
O64    O     0.42594   0.06417   0.27635   0.00000  Uiso   1.00
O65    O     0.35029   0.12936   0.27214   0.00000  Uiso   1.00
O66    O     0.40059   0.19514   0.24213   0.00000  Uiso   1.00
O67    O     0.42005   0.12733   0.23961   0.00000  Uiso   1.00
O68    O     0.43147   0.13165   0.31460   0.00000  Uiso   1.00
O69    O     0.47180   0.05179   0.22075   0.00000  Uiso   1.00
Si42   Si    0.44234   0.03044   0.25702   0.00000  Uiso   1.00
Si43   Si    0.44168   0.11217   0.27520   0.00000  Uiso   1.00
O70    O     0.47054   0.01529   0.28651   0.00000  Uiso   1.00
O71    O     0.49308   0.12946   0.27229   0.00000  Uiso   1.00
Si44   Si    0.44233   0.23044   0.25701   0.00000  Uiso   1.00
O72    O     0.47055   0.21529   0.28650   0.00000  Uiso   1.00
H6     H     0.40203   0.12560   0.31955   0.00000  Uiso   1.00
H7     H     0.45725   0.19163   0.30082   0.00000  Uiso   1.00
O73    O     0.04314   0.25168   0.22062   0.00000  Uiso   1.00
Si45   Si    0.01333   0.31222   0.27513   0.00000  Uiso   1.00
Si46   Si    0.09770   0.34748   0.23688   0.00000  Uiso   1.00
O74    O     0.14036   0.26435   0.27628   0.00000  Uiso   1.00
O75    O     0.06468   0.32925   0.27184   0.00000  Uiso   1.00
O76    O     0.11506   0.39520   0.24238   0.00000  Uiso   1.00
O77    O     0.13442   0.32739   0.23942   0.00000  Uiso   1.00
O78    O     0.14611   0.33197   0.31430   0.00000  Uiso   1.00
O79    O     0.04314   0.45169   0.22062   0.00000  Uiso   1.00
Si47   Si    0.01378   0.43045   0.25703   0.00000  Uiso   1.00
O80    O     0.04212   0.41544   0.28647   0.00000  Uiso   1.00
O81    O     0.14035   0.46436   0.27628   0.00000  Uiso   1.00
Si48   Si    0.15613   0.31232   0.27496   0.00000  Uiso   1.00
O82    O     0.18600   0.45197   0.22066   0.00000  Uiso   1.00
Si49   Si    0.15676   0.43063   0.25706   0.00000  Uiso   1.00
O83    O     0.18516   0.41578   0.28657   0.00000  Uiso   1.00
O84    O     0.00372   0.33187   0.31467   0.00000  Uiso   1.00
H8     H     0.11673   0.32621   0.31933   0.00000  Uiso   1.00
H9     H     0.02916   0.39146   0.30045   0.00000  Uiso   1.00
H10    H     0.17218   0.39189   0.30064   0.00000  Uiso   1.00
O85    O     0.18602   0.25198   0.22066   0.00000  Uiso   1.00
Si50   Si    0.24048   0.34755   0.23696   0.00000  Uiso   1.00
O86    O     0.28301   0.26438   0.27631   0.00000  Uiso   1.00
O87    O     0.20750   0.32936   0.27195   0.00000  Uiso   1.00
O88    O     0.25783   0.39529   0.24233   0.00000  Uiso   1.00
O89    O     0.27740   0.32767   0.23948   0.00000  Uiso   1.00
O90    O     0.28885   0.33197   0.31445   0.00000  Uiso   1.00
O91    O     0.28301   0.46438   0.27632   0.00000  Uiso   1.00
O92    O     0.32881   0.25194   0.22062   0.00000  Uiso   1.00
Si51   Si    0.29890   0.31239   0.27506   0.00000  Uiso   1.00
Si52   Si    0.38324   0.34734   0.23705   0.00000  Uiso   1.00
O93    O     0.35029   0.32938   0.27215   0.00000  Uiso   1.00
O94    O     0.40058   0.39515   0.24213   0.00000  Uiso   1.00
O95    O     0.32882   0.45194   0.22063   0.00000  Uiso   1.00
Si53   Si    0.29953   0.43070   0.25705   0.00000  Uiso   1.00
O96    O     0.32793   0.41576   0.28651   0.00000  Uiso   1.00
O97    O     0.42595   0.46418   0.27634   0.00000  Uiso   1.00
H11    H     0.25945   0.32606   0.31949   0.00000  Uiso   1.00
H12    H     0.31489   0.39199   0.30073   0.00000  Uiso   1.00
Si54   Si    0.44233   0.43045   0.25701   0.00000  Uiso   1.00
H13    H     0.45726   0.39161   0.30080   0.00000  Uiso   1.00
H14    H     0.40202   0.32562   0.31954   0.00000  Uiso   1.00
O98    O     0.47181   0.45180   0.22075   0.00000  Uiso   1.00
H15    H     0.72039   0.43666   0.34237   0.00000  Uiso   1.00
H16    H     0.71856   0.49615   0.37331   0.00000  Uiso   1.00
O99    O     0.47054   0.41530   0.28652   0.00000  Uiso   1.00
O100   O     0.42592   0.26416   0.27635   0.00000  Uiso   1.00
O101   O     0.42003   0.32732   0.23962   0.00000  Uiso   1.00
O102   O     0.43147   0.33165   0.31460   0.00000  Uiso   1.00
O103   O     0.47181   0.25180   0.22075   0.00000  Uiso   1.00
Si55   Si    0.44166   0.31216   0.27521   0.00000  Uiso   1.00
O104   O     0.49307   0.32945   0.27228   0.00000  Uiso   1.00
O105   O     0.63240   0.47268   0.43254   0.00000  Uiso   1.00
C1     C     0.63634   0.49545   0.37331   0.00000  Uiso   1.00
H17    H     0.60677   0.48959   0.35863   0.00000  Uiso   1.00
H18    H     0.65744   0.52292   0.36227   0.00000  Uiso   1.00
H19    H     0.65591   0.46038   0.33518   0.00000  Uiso   1.00
C2     C     0.62903   0.50255   0.41239   0.00000  Uiso   1.00
H20    H     0.65100   0.50066   0.48321   0.00000  Uiso   1.00
C3     C     0.62940   0.47327   0.47229   0.00000  Uiso   1.00
C4     C     0.65389   0.46252   0.36554   0.00000  Uiso   1.00
O106   O     0.62112   0.52973   0.42521   0.00000  Uiso   1.00
C5     C     0.69647   0.46800   0.38227   0.00000  Uiso   1.00
H21    H     0.63170   0.43454   0.37476   0.00000  Uiso   1.00
H22    H     0.69499   0.46948   0.41268   0.00000  Uiso   1.00
Si56   Si    0.05659   0.55666   0.16088   0.00000  Uiso   1.00
O107   O     0.03466   0.58864   0.17822   0.00000  Uiso   1.00
O108   O     0.01495   0.51939   0.14261   0.00000  Uiso   1.00
Si57   Si    0.05349   0.63702   0.17939   0.00000  Uiso   1.00
O109   O     0.07453   0.73617   0.19623   0.00000  Uiso   1.00
O110   O     0.01495   0.71939   0.14261   0.00000  Uiso   1.00
O111   O     0.03211   0.65394   0.14409   0.00000  Uiso   1.00
O112   O     0.07453   0.53616   0.19623   0.00000  Uiso   1.00
Si58   Si    0.13928   0.67281   0.13828   0.00000  Uiso   1.00
O113   O     0.10411   0.65193   0.17234   0.00000  Uiso   1.00
Si59   Si    0.19930   0.55666   0.16111   0.00000  Uiso   1.00
O114   O     0.21733   0.53604   0.19630   0.00000  Uiso   1.00
O115   O     0.17765   0.58870   0.17869   0.00000  Uiso   1.00
O116   O     0.15781   0.51939   0.14261   0.00000  Uiso   1.00
Si60   Si    0.19641   0.63714   0.17949   0.00000  Uiso   1.00
Si61   Si    0.28214   0.67281   0.13828   0.00000  Uiso   1.00
O117   O     0.21733   0.73603   0.19629   0.00000  Uiso   1.00
O118   O     0.24703   0.65191   0.17241   0.00000  Uiso   1.00
O119   O     0.15781   0.71939   0.14261   0.00000  Uiso   1.00
O120   O     0.17497   0.65394   0.14409   0.00000  Uiso   1.00
O121   O     0.30067   0.71939   0.14261   0.00000  Uiso   1.00
O122   O     0.31783   0.65394   0.14409   0.00000  Uiso   1.00
Si62   Si    0.34207   0.55650   0.16129   0.00000  Uiso   1.00
O123   O     0.36001   0.53576   0.19641   0.00000  Uiso   1.00
O124   O     0.32054   0.58866   0.17874   0.00000  Uiso   1.00
O125   O     0.30067   0.51939   0.14261   0.00000  Uiso   1.00
Si63   Si    0.33923   0.63710   0.17946   0.00000  Uiso   1.00
Si64   Si    0.42500   0.67281   0.13828   0.00000  Uiso   1.00
O126   O     0.36002   0.73576   0.19639   0.00000  Uiso   1.00
O127   O     0.38983   0.65181   0.17235   0.00000  Uiso   1.00
Si65   Si    0.48497   0.55651   0.16130   0.00000  Uiso   1.00
O128   O     0.46343   0.58872   0.17863   0.00000  Uiso   1.00
O129   O     0.44352   0.51939   0.14261   0.00000  Uiso   1.00
Si66   Si    0.48211   0.63714   0.17947   0.00000  Uiso   1.00
O130   O     0.44352   0.71939   0.14261   0.00000  Uiso   1.00
O131   O     0.46068   0.65394   0.14409   0.00000  Uiso   1.00
Si67   Si    0.05658   0.75667   0.16090   0.00000  Uiso   1.00
O132   O     0.03463   0.78863   0.17824   0.00000  Uiso   1.00
Si68   Si    0.05657   0.95667   0.16090   0.00000  Uiso   1.00
Si69   Si    0.05349   0.83702   0.17939   0.00000  Uiso   1.00
Si70   Si    0.13928   0.87281   0.13828   0.00000  Uiso   1.00
O133   O     0.07452   0.93617   0.19624   0.00000  Uiso   1.00
O134   O     0.03463   0.98863   0.17822   0.00000  Uiso   1.00
O135   O     0.10410   0.85191   0.17233   0.00000  Uiso   1.00
O136   O     0.01495   0.91939   0.14261   0.00000  Uiso   1.00
O137   O     0.03211   0.85394   0.14409   0.00000  Uiso   1.00
Si71   Si    0.19930   0.95666   0.16112   0.00000  Uiso   1.00
O138   O     0.17765   0.98870   0.17869   0.00000  Uiso   1.00
O139   O     0.15781   0.91939   0.14261   0.00000  Uiso   1.00
Si72   Si    0.19930   0.75665   0.16112   0.00000  Uiso   1.00
O140   O     0.17765   0.78870   0.17870   0.00000  Uiso   1.00
Si73   Si    0.19641   0.83714   0.17950   0.00000  Uiso   1.00
Si74   Si    0.28214   0.87281   0.13828   0.00000  Uiso   1.00
O141   O     0.21733   0.93603   0.19629   0.00000  Uiso   1.00
O142   O     0.24703   0.85191   0.17241   0.00000  Uiso   1.00
O143   O     0.17497   0.85394   0.14409   0.00000  Uiso   1.00
Si75   Si    0.34210   0.75651   0.16127   0.00000  Uiso   1.00
O144   O     0.32056   0.78866   0.17871   0.00000  Uiso   1.00
Si76   Si    0.34209   0.95651   0.16129   0.00000  Uiso   1.00
Si77   Si    0.33923   0.83710   0.17945   0.00000  Uiso   1.00
O145   O     0.36003   0.93576   0.19641   0.00000  Uiso   1.00
O146   O     0.32057   0.98867   0.17876   0.00000  Uiso   1.00
O147   O     0.38985   0.85184   0.17237   0.00000  Uiso   1.00
O148   O     0.30067   0.91939   0.14261   0.00000  Uiso   1.00
O149   O     0.31783   0.85394   0.14409   0.00000  Uiso   1.00
Si78   Si    0.42500   0.87281   0.13828   0.00000  Uiso   1.00
Si79   Si    0.48498   0.75649   0.16131   0.00000  Uiso   1.00
O150   O     0.46346   0.78872   0.17862   0.00000  Uiso   1.00
Si80   Si    0.48498   0.95651   0.16130   0.00000  Uiso   1.00
Si81   Si    0.48211   0.83714   0.17946   0.00000  Uiso   1.00
O151   O     0.46343   0.98872   0.17863   0.00000  Uiso   1.00
O152   O     0.44352   0.91939   0.14261   0.00000  Uiso   1.00
O153   O     0.46068   0.85394   0.14409   0.00000  Uiso   1.00
Si82   Si    0.01334   0.51223   0.27511   0.00000  Uiso   1.00
O154   O     0.04313   0.65169   0.22062   0.00000  Uiso   1.00
Si83   Si    0.01377   0.63045   0.25702   0.00000  Uiso   1.00
Si84   Si    0.01334   0.71224   0.27512   0.00000  Uiso   1.00
Si85   Si    0.09770   0.74749   0.23688   0.00000  Uiso   1.00
O155   O     0.04211   0.61543   0.28645   0.00000  Uiso   1.00
O156   O     0.06470   0.72926   0.27184   0.00000  Uiso   1.00
O157   O     0.00371   0.53188   0.31465   0.00000  Uiso   1.00
O158   O     0.00372   0.73188   0.31466   0.00000  Uiso   1.00
H23    H     0.02916   0.59146   0.30043   0.00000  Uiso   1.00
H24    H     0.11672   0.72621   0.31932   0.00000  Uiso   1.00
Si86   Si    0.09770   0.54749   0.23688   0.00000  Uiso   1.00
O159   O     0.06469   0.52926   0.27184   0.00000  Uiso   1.00
O160   O     0.11507   0.59521   0.24238   0.00000  Uiso   1.00
O161   O     0.13442   0.52740   0.23941   0.00000  Uiso   1.00
O162   O     0.14611   0.53197   0.31431   0.00000  Uiso   1.00
O163   O     0.14035   0.66434   0.27629   0.00000  Uiso   1.00
O164   O     0.13441   0.72739   0.23941   0.00000  Uiso   1.00
O165   O     0.14610   0.73197   0.31430   0.00000  Uiso   1.00
Si87   Si    0.15613   0.51232   0.27497   0.00000  Uiso   1.00
Si88   Si    0.24048   0.54755   0.23696   0.00000  Uiso   1.00
O166   O     0.20750   0.52937   0.27196   0.00000  Uiso   1.00
O167   O     0.25784   0.59528   0.24232   0.00000  Uiso   1.00
O168   O     0.27740   0.52768   0.23949   0.00000  Uiso   1.00
O169   O     0.18603   0.65198   0.22067   0.00000  Uiso   1.00
Si89   Si    0.15678   0.63063   0.25706   0.00000  Uiso   1.00
Si90   Si    0.15612   0.71231   0.27496   0.00000  Uiso   1.00
Si91   Si    0.24048   0.74754   0.23696   0.00000  Uiso   1.00
O170   O     0.18519   0.61577   0.28656   0.00000  Uiso   1.00
O171   O     0.28301   0.66439   0.27630   0.00000  Uiso   1.00
O172   O     0.20750   0.72936   0.27195   0.00000  Uiso   1.00
O173   O     0.27740   0.72768   0.23948   0.00000  Uiso   1.00
O174   O     0.28885   0.73195   0.31446   0.00000  Uiso   1.00
Si92   Si    0.29953   0.63070   0.25706   0.00000  Uiso   1.00
Si93   Si    0.29890   0.71239   0.27506   0.00000  Uiso   1.00
O175   O     0.35030   0.72938   0.27214   0.00000  Uiso   1.00
H25    H     0.11674   0.52621   0.31933   0.00000  Uiso   1.00
H26    H     0.25946   0.52609   0.31950   0.00000  Uiso   1.00
H27    H     0.17219   0.59190   0.30065   0.00000  Uiso   1.00
H28    H     0.25945   0.72607   0.31949   0.00000  Uiso   1.00
O176   O     0.28885   0.53197   0.31446   0.00000  Uiso   1.00
Si94   Si    0.29890   0.51238   0.27507   0.00000  Uiso   1.00
Si95   Si    0.38324   0.54735   0.23705   0.00000  Uiso   1.00
O177   O     0.35029   0.52937   0.27215   0.00000  Uiso   1.00
O178   O     0.40058   0.59515   0.24213   0.00000  Uiso   1.00
O179   O     0.42004   0.52733   0.23962   0.00000  Uiso   1.00
O180   O     0.43147   0.53166   0.31461   0.00000  Uiso   1.00
O181   O     0.32882   0.65193   0.22063   0.00000  Uiso   1.00
Si96   Si    0.38324   0.74734   0.23704   0.00000  Uiso   1.00
O182   O     0.32793   0.61575   0.28652   0.00000  Uiso   1.00
O183   O     0.42593   0.66417   0.27635   0.00000  Uiso   1.00
O184   O     0.42003   0.72732   0.23961   0.00000  Uiso   1.00
O185   O     0.43146   0.73165   0.31460   0.00000  Uiso   1.00
Si97   Si    0.44167   0.51218   0.27521   0.00000  Uiso   1.00
O186   O     0.49307   0.52946   0.27228   0.00000  Uiso   1.00
O187   O     0.47181   0.65179   0.22075   0.00000  Uiso   1.00
Si98   Si    0.44234   0.63045   0.25702   0.00000  Uiso   1.00
Si99   Si    0.44167   0.71217   0.27521   0.00000  Uiso   1.00
O188   O     0.47056   0.61530   0.28650   0.00000  Uiso   1.00
O189   O     0.49307   0.72947   0.27229   0.00000  Uiso   1.00
H29    H     0.40203   0.52563   0.31954   0.00000  Uiso   1.00
H30    H     0.31489   0.59198   0.30072   0.00000  Uiso   1.00
H31    H     0.40202   0.72561   0.31954   0.00000  Uiso   1.00
H32    H     0.45727   0.59163   0.30081   0.00000  Uiso   1.00
O190   O     0.11508   0.79520   0.24238   0.00000  Uiso   1.00
O191   O     0.04315   0.85170   0.22063   0.00000  Uiso   1.00
Si100  Si    0.01380   0.83045   0.25703   0.00000  Uiso   1.00
Si101  Si    0.01334   0.91224   0.27513   0.00000  Uiso   1.00
Si102  Si    0.09770   0.94748   0.23688   0.00000  Uiso   1.00
O192   O     0.04215   0.81545   0.28646   0.00000  Uiso   1.00
O193   O     0.14036   0.86436   0.27629   0.00000  Uiso   1.00
O194   O     0.06470   0.92926   0.27186   0.00000  Uiso   1.00
O195   O     0.11506   0.99520   0.24237   0.00000  Uiso   1.00
O196   O     0.13442   0.92740   0.23942   0.00000  Uiso   1.00
O197   O     0.14610   0.93197   0.31430   0.00000  Uiso   1.00
Si103  Si    0.15678   0.83063   0.25707   0.00000  Uiso   1.00
Si104  Si    0.15613   0.91231   0.27497   0.00000  Uiso   1.00
O198   O     0.00373   0.93188   0.31468   0.00000  Uiso   1.00
H33    H     0.02919   0.99148   0.30045   0.00000  Uiso   1.00
H34    H     0.02920   0.79148   0.30044   0.00000  Uiso   1.00
H35    H     0.11672   0.92620   0.31932   0.00000  Uiso   1.00
H36    H     0.17217   0.99188   0.30065   0.00000  Uiso   1.00
O199   O     0.25782   0.79528   0.24232   0.00000  Uiso   1.00
O200   O     0.18603   0.85198   0.22067   0.00000  Uiso   1.00
Si105  Si    0.24049   0.94755   0.23696   0.00000  Uiso   1.00
O201   O     0.18517   0.81576   0.28656   0.00000  Uiso   1.00
O202   O     0.28300   0.86438   0.27631   0.00000  Uiso   1.00
O203   O     0.20750   0.92938   0.27196   0.00000  Uiso   1.00
O204   O     0.25783   0.99528   0.24232   0.00000  Uiso   1.00
O205   O     0.27741   0.92769   0.23948   0.00000  Uiso   1.00
O206   O     0.28886   0.93196   0.31446   0.00000  Uiso   1.00
O207   O     0.32882   0.85193   0.22062   0.00000  Uiso   1.00
Si106  Si    0.29952   0.83069   0.25705   0.00000  Uiso   1.00
Si107  Si    0.29891   0.91239   0.27507   0.00000  Uiso   1.00
Si108  Si    0.38325   0.94734   0.23705   0.00000  Uiso   1.00
O208   O     0.32794   0.81575   0.28650   0.00000  Uiso   1.00
O209   O     0.35029   0.92937   0.27214   0.00000  Uiso   1.00
O210   O     0.40059   0.99514   0.24214   0.00000  Uiso   1.00
O211   O     0.42004   0.92732   0.23962   0.00000  Uiso   1.00
H37    H     0.17218   0.79189   0.30065   0.00000  Uiso   1.00
H38    H     0.25947   0.92608   0.31951   0.00000  Uiso   1.00
H39    H     0.31488   0.99198   0.30073   0.00000  Uiso   1.00
H40    H     0.31489   0.79199   0.30073   0.00000  Uiso   1.00
H41    H     0.40203   0.92561   0.31955   0.00000  Uiso   1.00
O212   O     0.40059   0.79514   0.24211   0.00000  Uiso   1.00
O213   O     0.42594   0.86416   0.27635   0.00000  Uiso   1.00
O214   O     0.43147   0.93164   0.31460   0.00000  Uiso   1.00
O215   O     0.47182   0.85179   0.22075   0.00000  Uiso   1.00
Si109  Si    0.44233   0.83044   0.25701   0.00000  Uiso   1.00
Si110  Si    0.44167   0.91216   0.27521   0.00000  Uiso   1.00
O216   O     0.47055   0.81528   0.28650   0.00000  Uiso   1.00
O217   O     0.49307   0.92946   0.27229   0.00000  Uiso   1.00
H42    H     0.45727   0.99161   0.30080   0.00000  Uiso   1.00
H43    H     0.45726   0.79160   0.30080   0.00000  Uiso   1.00
H44    H    -0.18034   0.80594   0.36422   0.00000  Uiso   1.00
H45    H    -0.10733   0.84685   0.34435   0.00000  Uiso   1.00
C6     C    -0.17313   0.81845   0.39214   0.00000  Uiso   1.00
H46    H    -0.20212   0.81919   0.40453   0.00000  Uiso   1.00
H47    H    -0.16220   0.79872   0.40888   0.00000  Uiso   1.00
H48    H    -0.15414   0.87805   0.37459   0.00000  Uiso   1.00
C7     C    -0.14094   0.85912   0.39031   0.00000  Uiso   1.00
C8     C    -0.10032   0.86033   0.37193   0.00000  Uiso   1.00
H49    H    -0.09345   0.81031   0.40008   0.00000  Uiso   1.00
H50    H     0.61248   0.43462   0.54081   0.00000  Uiso   1.00
C9     C     0.63951   0.44022   0.48591   0.00000  Uiso   1.00
H51    H     0.61660   0.41370   0.47449   0.00000  Uiso   1.00
H52    H     0.66945   0.44195   0.47355   0.00000  Uiso   1.00
C10    C     0.64210   0.43627   0.52786   0.00000  Uiso   1.00
C11    C    -0.07468   0.84061   0.39385   0.00000  Uiso   1.00
C12    C    -0.03600   0.84096   0.37262   0.00000  Uiso   1.00
H53    H    -0.01810   0.87107   0.36477   0.00000  Uiso   1.00
H54    H    -0.04570   0.82486   0.34645   0.00000  Uiso   1.00
C13    C     0.65301   0.40033   0.53838   0.00000  Uiso   1.00
H55    H     0.68137   0.40135   0.52350   0.00000  Uiso   1.00
H56    H     0.62845   0.37417   0.52831   0.00000  Uiso   1.00
H57    H     0.04423   0.85159   0.35778   0.00000  Uiso   1.00
Si111  Si    0.56785   0.07281   0.13828   0.00000  Uiso   1.00
O218   O     0.50260   0.13565   0.19659   0.00000  Uiso   1.00
O219   O     0.53272   0.05203   0.17236   0.00000  Uiso   1.00
O220   O     0.60627   0.18875   0.17851   0.00000  Uiso   1.00
O221   O     0.58638   0.11939   0.14261   0.00000  Uiso   1.00
Si112  Si    0.62494   0.23717   0.17950   0.00000  Uiso   1.00
Si113  Si    0.62788   0.15656   0.16118   0.00000  Uiso   1.00
Si114  Si    0.62494   0.03716   0.17949   0.00000  Uiso   1.00
Si115  Si    0.71071   0.07281   0.13828   0.00000  Uiso   1.00
O222   O     0.64553   0.13571   0.19646   0.00000  Uiso   1.00
O223   O     0.67557   0.05222   0.17251   0.00000  Uiso   1.00
O224   O     0.60354   0.05394   0.14409   0.00000  Uiso   1.00
Si116  Si    0.77066   0.15658   0.16115   0.00000  Uiso   1.00
Si117  Si    0.76774   0.03707   0.17945   0.00000  Uiso   1.00
O225   O     0.78874   0.13600   0.19634   0.00000  Uiso   1.00
O226   O     0.74887   0.18867   0.17836   0.00000  Uiso   1.00
O227   O     0.72924   0.11939   0.14261   0.00000  Uiso   1.00
O228   O     0.74640   0.05394   0.14409   0.00000  Uiso   1.00
Si118  Si    0.76775   0.23707   0.17945   0.00000  Uiso   1.00
Si119  Si    0.85357   0.07281   0.13828   0.00000  Uiso   1.00
O229   O     0.81835   0.05196   0.17235   0.00000  Uiso   1.00
Si120  Si    0.91353   0.15655   0.16129   0.00000  Uiso   1.00
Si121  Si    0.91052   0.03700   0.17946   0.00000  Uiso   1.00
Si122  Si    0.99643   0.07281   0.13828   0.00000  Uiso   1.00
O230   O     0.93144   0.13601   0.19661   0.00000  Uiso   1.00
O231   O     0.89157   0.18862   0.17826   0.00000  Uiso   1.00
O232   O     0.96111   0.05185   0.17221   0.00000  Uiso   1.00
O233   O     0.87210   0.11939   0.14261   0.00000  Uiso   1.00
O234   O     0.88925   0.05394   0.14409   0.00000  Uiso   1.00
Si123  Si    0.91052   0.23701   0.17947   0.00000  Uiso   1.00
Si124  Si    0.56785   0.27281   0.13828   0.00000  Uiso   1.00
O235   O     0.50258   0.33563   0.19659   0.00000  Uiso   1.00
O236   O     0.53272   0.25203   0.17236   0.00000  Uiso   1.00
Si125  Si    0.56785   0.47281   0.13828   0.00000  Uiso   1.00
O237   O     0.53272   0.45203   0.17237   0.00000  Uiso   1.00
Si126  Si    0.62789   0.35656   0.16115   0.00000  Uiso   1.00
O238   O     0.64555   0.33572   0.19645   0.00000  Uiso   1.00
O239   O     0.60627   0.38875   0.17849   0.00000  Uiso   1.00
O240   O     0.58638   0.31939   0.14261   0.00000  Uiso   1.00
O241   O     0.60354   0.25394   0.14409   0.00000  Uiso   1.00
Si127  Si    0.62494   0.43717   0.17949   0.00000  Uiso   1.00
Si128  Si    0.71071   0.47281   0.13828   0.00000  Uiso   1.00
O242   O     0.67556   0.45222   0.17251   0.00000  Uiso   1.00
O243   O     0.60354   0.45394   0.14409   0.00000  Uiso   1.00
Si129  Si    0.71071   0.27281   0.13828   0.00000  Uiso   1.00
O244   O     0.67557   0.25221   0.17251   0.00000  Uiso   1.00
Si130  Si    0.77066   0.35660   0.16114   0.00000  Uiso   1.00
Si131  Si    0.85357   0.27281   0.13828   0.00000  Uiso   1.00
O245   O     0.78872   0.33602   0.19634   0.00000  Uiso   1.00
O246   O     0.74886   0.38868   0.17836   0.00000  Uiso   1.00
O247   O     0.81835   0.25196   0.17235   0.00000  Uiso   1.00
O248   O     0.72924   0.31939   0.14261   0.00000  Uiso   1.00
O249   O     0.74640   0.25394   0.14409   0.00000  Uiso   1.00
Si132  Si    0.76775   0.43707   0.17945   0.00000  Uiso   1.00
Si133  Si    0.85357   0.47281   0.13828   0.00000  Uiso   1.00
O250   O     0.81835   0.45196   0.17235   0.00000  Uiso   1.00
O251   O     0.74640   0.45394   0.14409   0.00000  Uiso   1.00
O252   O     0.89156   0.38861   0.17827   0.00000  Uiso   1.00
O253   O     0.87210   0.31939   0.14261   0.00000  Uiso   1.00
Si134  Si    0.91052   0.43700   0.17947   0.00000  Uiso   1.00
O254   O     0.88925   0.45394   0.14409   0.00000  Uiso   1.00
Si135  Si    0.91352   0.35654   0.16128   0.00000  Uiso   1.00
Si136  Si    0.99643   0.27281   0.13828   0.00000  Uiso   1.00
O255   O     0.93144   0.33600   0.19660   0.00000  Uiso   1.00
O256   O     0.96111   0.25186   0.17221   0.00000  Uiso   1.00
O257   O     0.88925   0.25394   0.14409   0.00000  Uiso   1.00
Si137  Si    0.99643   0.47281   0.13828   0.00000  Uiso   1.00
O258   O     0.96110   0.45185   0.17221   0.00000  Uiso   1.00
Si138  Si    0.52597   0.14742   0.23713   0.00000  Uiso   1.00
O259   O     0.56880   0.06434   0.27632   0.00000  Uiso   1.00
O260   O     0.54327   0.19524   0.24204   0.00000  Uiso   1.00
O261   O     0.56285   0.12751   0.23966   0.00000  Uiso   1.00
O262   O     0.57423   0.13172   0.31457   0.00000  Uiso   1.00
Si139  Si    0.58456   0.11232   0.27518   0.00000  Uiso   1.00
Si140  Si    0.58503   0.23049   0.25699   0.00000  Uiso   1.00
O263   O     0.61300   0.21509   0.28649   0.00000  Uiso   1.00
H58    H     0.54476   0.12591   0.31925   0.00000  Uiso   1.00
H59    H     0.59963   0.19143   0.30077   0.00000  Uiso   1.00
O264   O     0.61460   0.05178   0.22078   0.00000  Uiso   1.00
Si141  Si    0.58501   0.03049   0.25699   0.00000  Uiso   1.00
Si142  Si    0.66884   0.14741   0.23703   0.00000  Uiso   1.00
O265   O     0.61297   0.01510   0.28650   0.00000  Uiso   1.00
O266   O     0.71173   0.06436   0.27629   0.00000  Uiso   1.00
O267   O     0.63597   0.12949   0.27221   0.00000  Uiso   1.00
O268   O     0.68603   0.19524   0.24191   0.00000  Uiso   1.00
O269   O     0.70585   0.12762   0.23954   0.00000  Uiso   1.00
O270   O     0.71710   0.13182   0.31449   0.00000  Uiso   1.00
O271   O     0.75763   0.05170   0.22080   0.00000  Uiso   1.00
Si143  Si    0.72781   0.03042   0.25694   0.00000  Uiso   1.00
Si144  Si    0.72745   0.11237   0.27510   0.00000  Uiso   1.00
Si145  Si    0.81176   0.14765   0.23703   0.00000  Uiso   1.00
O272   O     0.75551   0.01490   0.28662   0.00000  Uiso   1.00
O273   O     0.77886   0.12951   0.27211   0.00000  Uiso   1.00
O274   O     0.82859   0.19544   0.24211   0.00000  Uiso   1.00
Si146  Si    0.72783   0.23043   0.25695   0.00000  Uiso   1.00
O275   O     0.75553   0.21489   0.28662   0.00000  Uiso   1.00
H60    H     0.68764   0.12610   0.31921   0.00000  Uiso   1.00
H61    H     0.74200   0.19111   0.30071   0.00000  Uiso   1.00
O276   O     0.85434   0.06454   0.27617   0.00000  Uiso   1.00
O277   O     0.84882   0.12795   0.23963   0.00000  Uiso   1.00
O278   O     0.86004   0.13199   0.31462   0.00000  Uiso   1.00
O279   O     0.90045   0.05167   0.22081   0.00000  Uiso   1.00
Si147  Si    0.87048   0.03060   0.25695   0.00000  Uiso   1.00
Si148  Si    0.87023   0.11254   0.27520   0.00000  Uiso   1.00
Si149  Si    0.95458   0.14743   0.23727   0.00000  Uiso   1.00
O280   O     0.89826   0.01508   0.28653   0.00000  Uiso   1.00
O281   O     0.99753   0.06424   0.27641   0.00000  Uiso   1.00
O282   O     0.92163   0.12944   0.27234   0.00000  Uiso   1.00
O283   O     0.97185   0.19521   0.24238   0.00000  Uiso   1.00
O284   O     0.99143   0.12747   0.23974   0.00000  Uiso   1.00
Si150  Si    0.87049   0.23061   0.25696   0.00000  Uiso   1.00
O285   O     0.89825   0.21514   0.28660   0.00000  Uiso   1.00
H62    H     0.83066   0.12633   0.31956   0.00000  Uiso   1.00
H63    H     0.97442   0.12617   0.31998   0.00000  Uiso   1.00
H64    H     0.88470   0.19155   0.30095   0.00000  Uiso   1.00
Si151  Si    0.52595   0.34741   0.23713   0.00000  Uiso   1.00
O286   O     0.56881   0.26433   0.27632   0.00000  Uiso   1.00
O287   O     0.54326   0.39523   0.24204   0.00000  Uiso   1.00
O288   O     0.56283   0.32750   0.23966   0.00000  Uiso   1.00
O289   O     0.57424   0.33172   0.31457   0.00000  Uiso   1.00
O290   O     0.56875   0.46433   0.27628   0.00000  Uiso   1.00
O291   O     0.61462   0.25180   0.22079   0.00000  Uiso   1.00
Si152  Si    0.58455   0.31231   0.27517   0.00000  Uiso   1.00
Si153  Si    0.66884   0.34741   0.23703   0.00000  Uiso   1.00
O292   O     0.63597   0.32949   0.27220   0.00000  Uiso   1.00
O293   O     0.68603   0.39524   0.24191   0.00000  Uiso   1.00
O294   O     0.61460   0.45179   0.22078   0.00000  Uiso   1.00
Si154  Si    0.58500   0.43050   0.25699   0.00000  Uiso   1.00
O295   O     0.61298   0.41513   0.28651   0.00000  Uiso   1.00
O296   O     0.71176   0.46435   0.27632   0.00000  Uiso   1.00
H65    H     0.54478   0.32590   0.31927   0.00000  Uiso   1.00
H66    H     0.59962   0.39145   0.30078   0.00000  Uiso   1.00
H67    H     0.77444   0.47119   0.39030   0.00000  Uiso   1.00
H68    H     0.75748   0.38359   0.38487   0.00000  Uiso   1.00
C14    C     0.75350   0.44119   0.39443   0.00000  Uiso   1.00
H69    H     0.79160   0.42093   0.35771   0.00000  Uiso   1.00
H70    H     0.74529   0.43834   0.42411   0.00000  Uiso   1.00
C15    C     0.77792   0.41413   0.38554   0.00000  Uiso   1.00
H71    H     0.83031   0.36981   0.40068   0.00000  Uiso   1.00
H72    H     0.86327   0.40304   0.43208   0.00000  Uiso   1.00
C16    C     0.84473   0.40101   0.40671   0.00000  Uiso   1.00
C17    C     0.81156   0.41925   0.41494   0.00000  Uiso   1.00
C18    C     0.71406   0.43591   0.37229   0.00000  Uiso   1.00
H73    H     0.92861   0.41196   0.39807   0.00000  Uiso   1.00
O297   O     0.71175   0.26435   0.27631   0.00000  Uiso   1.00
O298   O     0.70585   0.32762   0.23955   0.00000  Uiso   1.00
O299   O     0.71709   0.33182   0.31450   0.00000  Uiso   1.00
O300   O     0.75763   0.25172   0.22080   0.00000  Uiso   1.00
Si155  Si    0.72746   0.31236   0.27511   0.00000  Uiso   1.00
Si156  Si    0.81175   0.34767   0.23703   0.00000  Uiso   1.00
O301   O     0.85431   0.26455   0.27614   0.00000  Uiso   1.00
O302   O     0.77885   0.32951   0.27213   0.00000  Uiso   1.00
O303   O     0.82857   0.39545   0.24211   0.00000  Uiso   1.00
O304   O     0.84881   0.32797   0.23963   0.00000  Uiso   1.00
O305   O     0.86003   0.33198   0.31461   0.00000  Uiso   1.00
O306   O     0.75764   0.45172   0.22080   0.00000  Uiso   1.00
Si157  Si    0.72783   0.43042   0.25695   0.00000  Uiso   1.00
O307   O     0.75553   0.41488   0.28661   0.00000  Uiso   1.00
O308   O     0.85432   0.46455   0.27615   0.00000  Uiso   1.00
Si158  Si    0.87022   0.31255   0.27519   0.00000  Uiso   1.00
O309   O     0.90046   0.45166   0.22083   0.00000  Uiso   1.00
Si159  Si    0.87049   0.43061   0.25697   0.00000  Uiso   1.00
O310   O     0.89825   0.41511   0.28658   0.00000  Uiso   1.00
H74    H     0.68763   0.32609   0.31922   0.00000  Uiso   1.00
H75    H     0.83065   0.32633   0.31954   0.00000  Uiso   1.00
H76    H     0.74199   0.39110   0.30072   0.00000  Uiso   1.00
H77    H     0.88469   0.39155   0.30096   0.00000  Uiso   1.00
H78    H     0.90041   0.37495   0.36686   0.00000  Uiso   1.00
C19    C     0.91071   0.40637   0.37216   0.00000  Uiso   1.00
O311   O     0.90046   0.25167   0.22083   0.00000  Uiso   1.00
Si160  Si    0.95458   0.34743   0.23727   0.00000  Uiso   1.00
O312   O     0.99753   0.26424   0.27641   0.00000  Uiso   1.00
O313   O     0.92163   0.32943   0.27232   0.00000  Uiso   1.00
O314   O     0.97185   0.39521   0.24236   0.00000  Uiso   1.00
O315   O     0.99144   0.32747   0.23975   0.00000  Uiso   1.00
O316   O     0.99753   0.46425   0.27640   0.00000  Uiso   1.00
H79    H     0.97441   0.32616   0.31998   0.00000  Uiso   1.00
H80    H     0.79624   0.40755   0.44133   0.00000  Uiso   1.00
H81    H     0.85695   0.41609   0.34875   0.00000  Uiso   1.00
C20    C     0.87398   0.42083   0.37516   0.00000  Uiso   1.00
H82    H     0.88566   0.45245   0.37986   0.00000  Uiso   1.00
H83    H     0.82728   0.45052   0.41968   0.00000  Uiso   1.00
H84    H     0.69108   0.40722   0.37831   0.00000  Uiso   1.00
H85    H     0.93181   0.42098   0.34969   0.00000  Uiso   1.00
H86    H     0.83823   0.39974   0.56226   0.00000  Uiso   1.00
H87    H     0.77614   0.37583   0.52215   0.00000  Uiso   1.00
C21    C     0.77315   0.37526   0.55256   0.00000  Uiso   1.00
H88    H     0.77393   0.34681   0.56158   0.00000  Uiso   1.00
H89    H     0.80736   0.40397   0.60023   0.00000  Uiso   1.00
C22    C     0.81043   0.40683   0.56988   0.00000  Uiso   1.00
C23    C     0.70510   0.35193   0.58266   0.00000  Uiso   1.00
O317   O     0.70982   0.32170   0.59237   0.00000  Uiso   1.00
O318   O     0.50256   0.53567   0.19659   0.00000  Uiso   1.00
Si161  Si    0.56785   0.67281   0.13828   0.00000  Uiso   1.00
O319   O     0.50259   0.73562   0.19659   0.00000  Uiso   1.00
O320   O     0.53271   0.65202   0.17235   0.00000  Uiso   1.00
O321   O     0.58638   0.71939   0.14261   0.00000  Uiso   1.00
Si162  Si    0.62789   0.55656   0.16115   0.00000  Uiso   1.00
O322   O     0.64555   0.53571   0.19644   0.00000  Uiso   1.00
O323   O     0.60627   0.58875   0.17848   0.00000  Uiso   1.00
O324   O     0.58638   0.51939   0.14261   0.00000  Uiso   1.00
Si163  Si    0.62494   0.63717   0.17950   0.00000  Uiso   1.00
Si164  Si    0.71071   0.67281   0.13828   0.00000  Uiso   1.00
O325   O     0.64554   0.73572   0.19646   0.00000  Uiso   1.00
O326   O     0.67557   0.65222   0.17251   0.00000  Uiso   1.00
O327   O     0.60354   0.65394   0.14409   0.00000  Uiso   1.00
Si165  Si    0.77066   0.55658   0.16115   0.00000  Uiso   1.00
O328   O     0.74885   0.58867   0.17835   0.00000  Uiso   1.00
O329   O     0.72924   0.51939   0.14261   0.00000  Uiso   1.00
Si166  Si    0.76775   0.63707   0.17946   0.00000  Uiso   1.00
O330   O     0.78871   0.73599   0.19635   0.00000  Uiso   1.00
O331   O     0.81835   0.65195   0.17235   0.00000  Uiso   1.00
O332   O     0.72924   0.71939   0.14261   0.00000  Uiso   1.00
O333   O     0.74640   0.65394   0.14409   0.00000  Uiso   1.00
O334   O     0.78872   0.53601   0.19635   0.00000  Uiso   1.00
Si167  Si    0.85357   0.67281   0.13828   0.00000  Uiso   1.00
Si168  Si    0.91353   0.55656   0.16128   0.00000  Uiso   1.00
O335   O     0.93145   0.53601   0.19659   0.00000  Uiso   1.00
O336   O     0.89157   0.58862   0.17829   0.00000  Uiso   1.00
O337   O     0.87210   0.51939   0.14261   0.00000  Uiso   1.00
Si169  Si    0.91052   0.63701   0.17947   0.00000  Uiso   1.00
Si170  Si    0.99643   0.67281   0.13828   0.00000  Uiso   1.00
O338   O     0.93145   0.73601   0.19660   0.00000  Uiso   1.00
O339   O     0.96110   0.65184   0.17220   0.00000  Uiso   1.00
O340   O     0.87210   0.71939   0.14261   0.00000  Uiso   1.00
O341   O     0.88925   0.65394   0.14409   0.00000  Uiso   1.00
Si171  Si    0.56785   0.87281   0.13828   0.00000  Uiso   1.00
O342   O     0.50255   0.93566   0.19659   0.00000  Uiso   1.00
O343   O     0.53272   0.85203   0.17237   0.00000  Uiso   1.00
Si172  Si    0.62789   0.75656   0.16116   0.00000  Uiso   1.00
O344   O     0.60627   0.78874   0.17849   0.00000  Uiso   1.00
Si173  Si    0.62790   0.95655   0.16115   0.00000  Uiso   1.00
Si174  Si    0.62494   0.83716   0.17949   0.00000  Uiso   1.00
O345   O     0.64553   0.93570   0.19645   0.00000  Uiso   1.00
O346   O     0.60627   0.98874   0.17847   0.00000  Uiso   1.00
O347   O     0.58638   0.91939   0.14261   0.00000  Uiso   1.00
O348   O     0.60354   0.85394   0.14409   0.00000  Uiso   1.00
Si175  Si    0.71071   0.87281   0.13828   0.00000  Uiso   1.00
O349   O     0.67557   0.85221   0.17250   0.00000  Uiso   1.00
Si176  Si    0.77067   0.75658   0.16113   0.00000  Uiso   1.00
O350   O     0.74887   0.78867   0.17834   0.00000  Uiso   1.00
Si177  Si    0.77068   0.95659   0.16113   0.00000  Uiso   1.00
Si178  Si    0.76775   0.83706   0.17945   0.00000  Uiso   1.00
Si179  Si    0.85357   0.87281   0.13828   0.00000  Uiso   1.00
O351   O     0.78873   0.93601   0.19634   0.00000  Uiso   1.00
O352   O     0.74886   0.98868   0.17834   0.00000  Uiso   1.00
O353   O     0.81835   0.85196   0.17235   0.00000  Uiso   1.00
O354   O     0.72924   0.91939   0.14261   0.00000  Uiso   1.00
O355   O     0.74640   0.85394   0.14409   0.00000  Uiso   1.00
Si180  Si    0.91353   0.95654   0.16129   0.00000  Uiso   1.00
O356   O     0.89157   0.98861   0.17827   0.00000  Uiso   1.00
O357   O     0.87210   0.91939   0.14261   0.00000  Uiso   1.00
O358   O     0.88925   0.85394   0.14409   0.00000  Uiso   1.00
Si181  Si    0.91353   0.75655   0.16127   0.00000  Uiso   1.00
O359   O     0.89157   0.78862   0.17825   0.00000  Uiso   1.00
Si182  Si    0.91052   0.83701   0.17946   0.00000  Uiso   1.00
Si183  Si    0.99643   0.87281   0.13828   0.00000  Uiso   1.00
O360   O     0.93144   0.93599   0.19660   0.00000  Uiso   1.00
O361   O     0.96111   0.85185   0.17221   0.00000  Uiso   1.00
Si184  Si    0.52594   0.54744   0.23712   0.00000  Uiso   1.00
O362   O     0.54325   0.59526   0.24204   0.00000  Uiso   1.00
Si185  Si    0.52596   0.74740   0.23713   0.00000  Uiso   1.00
O363   O     0.56883   0.66432   0.27634   0.00000  Uiso   1.00
O364   O     0.56283   0.72747   0.23967   0.00000  Uiso   1.00
O365   O     0.57424   0.73171   0.31458   0.00000  Uiso   1.00
Si186  Si    0.58502   0.63049   0.25699   0.00000  Uiso   1.00
Si187  Si    0.58455   0.71230   0.27518   0.00000  Uiso   1.00
H90    H     0.54473   0.52591   0.31923   0.00000  Uiso   1.00
H91    H     0.54477   0.72591   0.31927   0.00000  Uiso   1.00
O366   O     0.56283   0.52753   0.23964   0.00000  Uiso   1.00
O367   O     0.57420   0.53171   0.31454   0.00000  Uiso   1.00
Si188  Si    0.58451   0.51231   0.27514   0.00000  Uiso   1.00
Si189  Si    0.66882   0.54740   0.23703   0.00000  Uiso   1.00
O368   O     0.63593   0.52948   0.27219   0.00000  Uiso   1.00
O369   O     0.68604   0.59522   0.24192   0.00000  Uiso   1.00
O370   O     0.70582   0.52760   0.23956   0.00000  Uiso   1.00
O371   O     0.71709   0.53180   0.31452   0.00000  Uiso   1.00
O372   O     0.61462   0.65179   0.22079   0.00000  Uiso   1.00
Si190  Si    0.66883   0.74741   0.23703   0.00000  Uiso   1.00
O373   O     0.61298   0.61508   0.28648   0.00000  Uiso   1.00
O374   O     0.71174   0.66435   0.27631   0.00000  Uiso   1.00
O375   O     0.63597   0.72948   0.27221   0.00000  Uiso   1.00
O376   O     0.70583   0.72761   0.23954   0.00000  Uiso   1.00
O377   O     0.71709   0.73182   0.31450   0.00000  Uiso   1.00
Si191  Si    0.72745   0.51235   0.27512   0.00000  Uiso   1.00
O378   O     0.77885   0.52952   0.27213   0.00000  Uiso   1.00
O379   O     0.75763   0.65171   0.22081   0.00000  Uiso   1.00
Si192  Si    0.72782   0.63042   0.25695   0.00000  Uiso   1.00
Si193  Si    0.72744   0.71235   0.27511   0.00000  Uiso   1.00
Si194  Si    0.81174   0.74765   0.23703   0.00000  Uiso   1.00
O380   O     0.75554   0.61490   0.28661   0.00000  Uiso   1.00
O381   O     0.77885   0.72951   0.27213   0.00000  Uiso   1.00
O382   O     0.84881   0.72797   0.23963   0.00000  Uiso   1.00
H92    H     0.68763   0.52610   0.31923   0.00000  Uiso   1.00
H93    H     0.59962   0.59140   0.30076   0.00000  Uiso   1.00
H94    H     0.68762   0.72610   0.31920   0.00000  Uiso   1.00
H95    H     0.74201   0.59112   0.30073   0.00000  Uiso   1.00
H96    H     0.83066   0.72632   0.31955   0.00000  Uiso   1.00
H97    H     0.96820   0.58771   0.33589   0.00000  Uiso   1.00
H98    H     1.00526   0.66090   0.34829   0.00000  Uiso   1.00
C24    C     0.95547   0.58373   0.36424   0.00000  Uiso   1.00
C25    C     0.98162   0.61745   0.38860   0.00000  Uiso   1.00
H99    H     1.01256   0.61523   0.39268   0.00000  Uiso   1.00
H100   H     0.92386   0.58476   0.36181   0.00000  Uiso   1.00
Si195  Si    0.81175   0.54766   0.23704   0.00000  Uiso   1.00
O383   O     0.82858   0.59546   0.24210   0.00000  Uiso   1.00
O384   O     0.84881   0.52797   0.23964   0.00000  Uiso   1.00
O385   O     0.86006   0.53199   0.31462   0.00000  Uiso   1.00
O386   O     0.85432   0.66455   0.27615   0.00000  Uiso   1.00
O387   O     0.86005   0.73199   0.31461   0.00000  Uiso   1.00
Si196  Si    0.87023   0.51255   0.27519   0.00000  Uiso   1.00
Si197  Si    0.95458   0.54743   0.23726   0.00000  Uiso   1.00
O388   O     0.92163   0.52941   0.27231   0.00000  Uiso   1.00
O389   O     0.97185   0.59521   0.24237   0.00000  Uiso   1.00
O390   O     0.99145   0.52748   0.23974   0.00000  Uiso   1.00
O391   O     0.90046   0.65168   0.22083   0.00000  Uiso   1.00
Si198  Si    0.87049   0.63061   0.25696   0.00000  Uiso   1.00
Si199  Si    0.87023   0.71255   0.27519   0.00000  Uiso   1.00
Si200  Si    0.95460   0.74744   0.23726   0.00000  Uiso   1.00
O392   O     0.89826   0.61513   0.28657   0.00000  Uiso   1.00
O393   O     0.99753   0.66424   0.27640   0.00000  Uiso   1.00
O394   O     0.92163   0.72943   0.27232   0.00000  Uiso   1.00
O395   O     0.99144   0.72747   0.23973   0.00000  Uiso   1.00
H101   H     0.83068   0.52633   0.31957   0.00000  Uiso   1.00
H102   H     0.97440   0.52617   0.31995   0.00000  Uiso   1.00
H103   H     0.88471   0.59156   0.30094   0.00000  Uiso   1.00
H104   H     0.97442   0.72617   0.31998   0.00000  Uiso   1.00
C26    C     0.98588   0.65555   0.37332   0.00000  Uiso   1.00
O396   O     0.94682   0.65792   0.36158   0.00000  Uiso   1.00
H105   H     1.00111   0.67879   0.39314   0.00000  Uiso   1.00
H106   H     0.88643   0.68118   0.34484   0.00000  Uiso   1.00
H107   H     0.86866   0.63054   0.35532   0.00000  Uiso   1.00
C27    C     0.92093   0.66443   0.38699   0.00000  Uiso   1.00
C28    C     0.87983   0.65988   0.36751   0.00000  Uiso   1.00
O397   O     0.54328   0.79522   0.24204   0.00000  Uiso   1.00
Si201  Si    0.52594   0.94744   0.23712   0.00000  Uiso   1.00
O398   O     0.56874   0.86431   0.27625   0.00000  Uiso   1.00
O399   O     0.54324   0.99526   0.24206   0.00000  Uiso   1.00
O400   O     0.56284   0.92755   0.23962   0.00000  Uiso   1.00
O401   O     0.57417   0.93169   0.31453   0.00000  Uiso   1.00
O402   O     0.61462   0.85179   0.22079   0.00000  Uiso   1.00
Si202  Si    0.58501   0.83048   0.25698   0.00000  Uiso   1.00
Si203  Si    0.58451   0.91231   0.27513   0.00000  Uiso   1.00
Si204  Si    0.66882   0.94739   0.23703   0.00000  Uiso   1.00
O403   O     0.61298   0.81513   0.28652   0.00000  Uiso   1.00
O404   O     0.63592   0.92947   0.27219   0.00000  Uiso   1.00
O405   O     0.68604   0.99522   0.24191   0.00000  Uiso   1.00
H108   H     0.54471   0.92590   0.31920   0.00000  Uiso   1.00
H109   H     0.59962   0.99141   0.30076   0.00000  Uiso   1.00
H110   H     0.59961   0.79145   0.30078   0.00000  Uiso   1.00
H111   H     0.68765   0.92609   0.31925   0.00000  Uiso   1.00
O406   O     0.68603   0.79523   0.24191   0.00000  Uiso   1.00
O407   O     0.71175   0.86434   0.27631   0.00000  Uiso   1.00
O408   O     0.70583   0.92760   0.23955   0.00000  Uiso   1.00
O409   O     0.71711   0.93182   0.31452   0.00000  Uiso   1.00
O410   O     0.82856   0.79544   0.24209   0.00000  Uiso   1.00
O411   O     0.75762   0.85171   0.22080   0.00000  Uiso   1.00
Si205  Si    0.72783   0.83042   0.25695   0.00000  Uiso   1.00
Si206  Si    0.72746   0.91236   0.27512   0.00000  Uiso   1.00
Si207  Si    0.81175   0.94767   0.23703   0.00000  Uiso   1.00
O412   O     0.75553   0.81488   0.28662   0.00000  Uiso   1.00
O413   O     0.85431   0.86454   0.27612   0.00000  Uiso   1.00
O414   O     0.77886   0.92952   0.27212   0.00000  Uiso   1.00
O415   O     0.82855   0.99545   0.24209   0.00000  Uiso   1.00
O416   O     0.84883   0.92799   0.23962   0.00000  Uiso   1.00
O417   O     0.86003   0.93197   0.31461   0.00000  Uiso   1.00
Si208  Si    0.87048   0.83061   0.25695   0.00000  Uiso   1.00
Si209  Si    0.87023   0.91255   0.27518   0.00000  Uiso   1.00
O418   O     0.92164   0.92942   0.27233   0.00000  Uiso   1.00
H112   H     0.74199   0.99112   0.30072   0.00000  Uiso   1.00
H113   H     0.74199   0.79110   0.30071   0.00000  Uiso   1.00
H114   H     0.83065   0.92631   0.31954   0.00000  Uiso   1.00
H115   H     0.88469   0.99154   0.30093   0.00000  Uiso   1.00
H116   H     0.53349   0.62781   0.38320   0.00000  Uiso   1.00
H117   H     0.57915   0.59429   0.35554   0.00000  Uiso   1.00
H118   H     0.59909   0.64487   0.34708   0.00000  Uiso   1.00
C29    C     0.56257   0.62908   0.39680   0.00000  Uiso   1.00
C30    C     0.59317   0.62272   0.36903   0.00000  Uiso   1.00
H119   H     0.57544   0.65762   0.41025   0.00000  Uiso   1.00
H120   H     0.67008   0.63880   0.33635   0.00000  Uiso   1.00
H121   H     0.65003   0.58870   0.34630   0.00000  Uiso   1.00
C31    C     0.66468   0.61748   0.35904   0.00000  Uiso   1.00
C32    C     0.63424   0.62462   0.38679   0.00000  Uiso   1.00
C33    C     0.70646   0.61949   0.37564   0.00000  Uiso   1.00
H122   H     0.97442   0.92616   0.31998   0.00000  Uiso   1.00
O419   O     0.97187   0.79522   0.24237   0.00000  Uiso   1.00
O420   O     0.90046   0.85166   0.22083   0.00000  Uiso   1.00
Si210  Si    0.95459   0.94742   0.23727   0.00000  Uiso   1.00
O421   O     0.89822   0.81511   0.28658   0.00000  Uiso   1.00
O422   O     0.99753   0.86425   0.27639   0.00000  Uiso   1.00
O423   O     0.97185   0.99521   0.24238   0.00000  Uiso   1.00
O424   O     0.99146   0.92748   0.23975   0.00000  Uiso   1.00
H123   H     0.88468   0.79153   0.30094   0.00000  Uiso   1.00
H124   H     0.70139   0.59860   0.39867   0.00000  Uiso   1.00
H125   H     0.79127   0.57490   0.43855   0.00000  Uiso   1.00
H126   H     0.85743   0.64411   0.47972   0.00000  Uiso   1.00
H127   H     0.79310   0.58949   0.49983   0.00000  Uiso   1.00
H128   H     0.66571   0.46240   0.53915   0.00000  Uiso   1.00
C34    C     0.85528   0.62065   0.49974   0.00000  Uiso   1.00
N1     N     0.81959   0.58589   0.49203   0.00000  Uiso   1.00
C35    C     0.81700   0.57034   0.45398   0.00000  Uiso   1.00
H129   H     0.77863   0.51003   0.46143   0.00000  Uiso   1.00
H130   H     0.84481   0.58622   0.43810   0.00000  Uiso   1.00
N2     N     0.93324   0.64623   0.49406   0.00000  Uiso   1.00
C36    C     0.81015   0.52629   0.45175   0.00000  Uiso   1.00
H131   H     0.79939   0.43713   0.50329   0.00000  Uiso   1.00
H132   H     0.81091   0.51920   0.42228   0.00000  Uiso   1.00
C37    C     0.82842   0.49849   0.51094   0.00000  Uiso   1.00
H133   H     0.93646   0.65911   0.46903   0.00000  Uiso   1.00
C38    C     0.82424   0.45633   0.52061   0.00000  Uiso   1.00
N3     N     0.83866   0.51095   0.47207   0.00000  Uiso   1.00
H134   H     0.85134   0.51842   0.52953   0.00000  Uiso   1.00
H135   H     0.85253   0.45044   0.51243   0.00000  Uiso   1.00
C39    C     0.87818   0.51661   0.46224   0.00000  Uiso   1.00
H136   H     0.88811   0.55908   0.41664   0.00000  Uiso   1.00
H137   H     0.93515   0.52129   0.35835   0.00000  Uiso   1.00
C40    C     0.95340   0.54347   0.37808   0.00000  Uiso   1.00
C41    C     0.89055   0.53033   0.42197   0.00000  Uiso   1.00
C42    C     0.93552   0.53233   0.41695   0.00000  Uiso   1.00
H138   H     0.87091   0.50997   0.40163   0.00000  Uiso   1.00
H139   H     0.98490   0.54187   0.37783   0.00000  Uiso   1.00
H140   H     0.93784   0.50364   0.42351   0.00000  Uiso   1.00
H141   H     0.96741   0.61473   0.41631   0.00000  Uiso   1.00
H142   H     0.95516   0.55294   0.43720   0.00000  Uiso   1.00
O425   O     0.90228   0.50935   0.48330   0.00000  Uiso   1.00
H143   H     0.71453   0.66922   0.41086   0.00000  Uiso   1.00
H144   H     0.98826   0.71999   0.50424   0.00000  Uiso   1.00
C43    C     0.96301   0.65943   0.51926   0.00000  Uiso   1.00
H145   H     0.84473   0.64618   0.41815   0.00000  Uiso   1.00
O426   O     0.92931   0.67179   0.41914   0.00000  Uiso   1.00
C44    C     0.84804   0.66565   0.39421   0.00000  Uiso   1.00
H146   H     0.85938   0.69559   0.40502   0.00000  Uiso   1.00
H147   H     0.86534   0.87153   0.41840   0.00000  Uiso   1.00
H148   H     0.91886   0.89085   0.36707   0.00000  Uiso   1.00
H149   H     0.93426   0.85546   0.42068   0.00000  Uiso   1.00
O427   O     1.08032   0.72582   0.37467   0.00000  Uiso   1.00
H150   H     0.55516   0.60670   0.41853   0.00000  Uiso   1.00
O428   O     0.96176   0.64541   0.54988   0.00000  Uiso   1.00
H151   H     1.04659   0.67626   0.52837   0.00000  Uiso   1.00
H152   H     1.02854   0.70586   0.55775   0.00000  Uiso   1.00
C45    C     0.99839   0.69440   0.50437   0.00000  Uiso   1.00
C46    C     1.03662   0.70194   0.52880   0.00000  Uiso   1.00
H153   H     1.00604   0.68919   0.47565   0.00000  Uiso   1.00
C47    C     0.73205   0.66017   0.38922   0.00000  Uiso   1.00
H154   H     0.73602   0.68101   0.36627   0.00000  Uiso   1.00
H155   H     0.62831   0.60301   0.40925   0.00000  Uiso   1.00
C48    C     1.12215   0.70519   0.43217   0.00000  Uiso   1.00
H156   H     0.64807   0.65329   0.39985   0.00000  Uiso   1.00
H157   H     1.09843   0.74321   0.53650   0.00000  Uiso   1.00
H158   H     1.06203   0.76347   0.51974   0.00000  Uiso   1.00
C49    C     1.07246   0.73816   0.51697   0.00000  Uiso   1.00
H159   H     1.09361   0.67983   0.48167   0.00000  Uiso   1.00
C50    C     1.08845   0.73750   0.47735   0.00000  Uiso   1.00
H160   H     1.06262   0.73171   0.45759   0.00000  Uiso   1.00
C51    C     1.11180   0.70877   0.47101   0.00000  Uiso   1.00
H161   H     1.14030   0.71856   0.48775   0.00000  Uiso   1.00
H162   H     1.10957   0.76694   0.47069   0.00000  Uiso   1.00
H163   H     1.09530   0.68474   0.41802   0.00000  Uiso   1.00
H164   H     0.80777   0.67720   0.35305   0.00000  Uiso   1.00
H165   H     1.15418   0.79753   0.35914   0.00000  Uiso   1.00
C52    C     1.11059   0.74965   0.38759   0.00000  Uiso   1.00
C53    C     0.77458   0.66374   0.40500   0.00000  Uiso   1.00
H166   H     1.00459   0.84117   0.41861   0.00000  Uiso   1.00
H167   H     0.77072   0.64301   0.42804   0.00000  Uiso   1.00
O429   O     1.13541   0.74221   0.41375   0.00000  Uiso   1.00
H168   H     0.79386   0.62791   0.36604   0.00000  Uiso   1.00
H169   H     0.78818   0.69296   0.41720   0.00000  Uiso   1.00
H170   H     0.72416   0.61003   0.35448   0.00000  Uiso   1.00
H171   H     1.14729   0.69290   0.42986   0.00000  Uiso   1.00
C54    C     0.80534   0.65780   0.37694   0.00000  Uiso   1.00
H172   H     0.59812   0.47182   0.48068   0.00000  Uiso   1.00
H173   H     0.68262   0.42303   0.59040   0.00000  Uiso   1.00
H174   H     0.66810   0.35901   0.62317   0.00000  Uiso   1.00
H175   H     0.85138   0.63215   0.52717   0.00000  Uiso   1.00
C55    C     0.65859   0.39666   0.58011   0.00000  Uiso   1.00
C56    C     0.66799   0.36034   0.59268   0.00000  Uiso   1.00
H176   H     0.62964   0.39523   0.59429   0.00000  Uiso   1.00
H177   H     0.64309   0.33405   0.58349   0.00000  Uiso   1.00
H178   H     0.73012   0.40447   0.55746   0.00000  Uiso   1.00
N4     N     0.73320   0.37861   0.56251   0.00000  Uiso   1.00
H179   H     0.89952   0.59729   0.52501   0.00000  Uiso   1.00
H180   H     0.89573   0.59209   0.47679   0.00000  Uiso   1.00
N5     N     0.81351   0.44654   0.55947   0.00000  Uiso   1.00
H181   H     0.83470   0.46554   0.57566   0.00000  Uiso   1.00
C57    C     0.89639   0.61244   0.49942   0.00000  Uiso   1.00
H182   H     0.79892   0.50254   0.51787   0.00000  Uiso   1.00
H183   H     1.07258   0.82451   0.41217   0.00000  Uiso   1.00
H184   H     0.97483   0.79414   0.40314   0.00000  Uiso   1.00
H185   H     1.01458   0.80354   0.34517   0.00000  Uiso   1.00
H186   H     1.04402   0.77713   0.39692   0.00000  Uiso   1.00
C58    C     0.99251   0.82372   0.39363   0.00000  Uiso   1.00
C59    C     1.02816   0.82231   0.36895   0.00000  Uiso   1.00
C60    C     1.12785   0.79312   0.37810   0.00000  Uiso   1.00
H187   H     1.13995   0.80890   0.40393   0.00000  Uiso   1.00
C61    C     1.05981   0.80708   0.38731   0.00000  Uiso   1.00
H188   H     1.08286   0.79174   0.33563   0.00000  Uiso   1.00
C62    C     1.09532   0.80824   0.36104   0.00000  Uiso   1.00
H189   H     1.11108   0.83854   0.35228   0.00000  Uiso   1.00
loop_
_geom_bond_atom_site_label_1
_geom_bond_atom_site_label_2
_geom_bond_distance
_geom_bond_site_symmetry_2
_ccdc_geom_bond_type
Si1    O1      1.700   .     D
Si1    O2      1.711   .     S
Si1    O3      1.744   .     S
Si2    O4      1.691   .     S
Si2    O5      1.661   .     S
Si2    O44     1.663   .     S
Si2    O134    1.671   1_545 S
O1     Si32    1.657   .     S
O2     Si3     1.671   .     S
O3     Si122   1.616   1_455 S
O4     Si122   1.612   1_455 D
Si3    O21     1.661   .     S
Si3    O23     1.691   .     S
Si3    O73     1.663   .     S
Si4    O5      1.716   .     D
Si4    O9      1.616   .     S
Si4    O10     1.612   .     S
Si5    O6      1.699   .     D
Si5    O7      1.709   .     S
Si5    O9      1.744   .     S
Si6    O8      1.661   .     S
Si6    O10     1.693   .     S
Si6    O53     1.664   .     S
Si6    O138    1.672   1_545 S
Si7    O8      1.717   .     D
Si7    O12     1.616   .     S
Si7    O15     1.612   .     S
O6     Si36    1.658   .     S
O7     Si8     1.672   .     S
Si8    O30     1.661   .     S
Si8    O31     1.693   .     S
Si8    O85     1.664   .     S
O11    Si9     1.672   .     S
O11    Si10    1.709   .     D
O12    Si10    1.742   .     S
Si9    O36     1.692   .     S
Si9    O39     1.661   .     S
Si9    O92     1.664   .     S
Si10   O13     1.699   .     S
Si11   O14     1.661   .     S
Si11   O15     1.692   .     S
Si11   O62     1.664   .     S
Si11   O146    1.672   1_545 S
Si12   O14     1.717   .     D
Si12   O17     1.616   .     S
Si12   O18     1.612   .     S
O13    Si41    1.659   .     S
Si13   O16     1.709   .     D
Si13   O17     1.743   .     S
Si13   O218    1.700   .     S
Si14   O18     1.692   .     S
Si14   O69     1.664   .     S
Si14   O151    1.672   1_545 S
Si14   O219    1.661   .     S
O16    Si15    1.672   .     S
Si15   O42     1.692   .     S
Si15   O103    1.664   .     S
Si15   O236    1.661   .     S
Si16   O19     1.700   .     D
Si16   O20     1.711   .     S
Si16   O22     1.744   .     S
Si17   O21     1.716   .     D
Si17   O27     1.616   .     S
Si17   O31     1.612   .     S
O19    Si46    1.657   .     S
O20    Si18    1.671   .     S
O22    Si136   1.616   1_455 D
O23    Si136   1.612   1_455 S
Si18   O24     1.660   .     S
Si18   O25     1.691   .     S
Si18   O79     1.663   .     S
Si19   O24     1.716   .     D
Si19   O28     1.612   .     S
Si19   O116    1.616   .     S
O25    Si137   1.612   1_455 S
O26    Si20    1.672   .     S
O26    Si21    1.709   .     D
O27    Si21    1.744   .     S
Si20   O28     1.693   .     S
Si20   O32     1.661   .     S
Si20   O82     1.664   .     S
Si21   O29     1.699   .     S
Si22   O30     1.717   .     D
Si22   O35     1.616   .     S
Si22   O36     1.612   .     S
O29    Si50    1.658   .     S
Si23   O32     1.717   .     D
Si23   O38     1.612   .     S
Si23   O125    1.616   .     S
Si24   O33     1.699   .     D
Si24   O34     1.709   .     S
Si24   O35     1.742   .     S
O33    Si52    1.659   .     S
O34    Si25    1.672   .     S
Si25   O37     1.661   .     S
Si25   O38     1.692   .     S
Si25   O95     1.664   .     S
Si26   O37     1.717   .     D
Si26   O43     1.612   .     S
Si26   O129    1.616   .     S
Si27   O39     1.717   .     D
Si27   O41     1.616   .     S
Si27   O42     1.612   .     S
Si28   O40     1.709   .     D
Si28   O41     1.743   .     S
Si28   O235    1.699   .     S
O40    Si29    1.672   .     S
Si29   O43     1.692   .     S
Si29   O98     1.664   .     S
Si29   O237    1.661   .     S
O44    Si30    1.683   .     S
Si30   O45     1.657   .     S
Si30   O281    1.673   1_455 S
Si30   O423    1.667   1_445 S
Si31   O46     1.669   .     S
Si31   O49     1.683   .     S
Si31   O281    1.657   1_455 S
Si31   O284    1.672   1_455 S
Si32   O46     1.681   .     S
Si32   O47     1.658   .     S
Si32   O51     1.664   .     S
O45    H33     0.981   1_545 S
O47    Si37    1.666   .     S
Si33   O48     1.657   .     S
Si33   O73     1.683   .     S
Si33   O283    1.667   1_455 S
Si33   O312    1.673   1_455 S
O48    H1      0.981   .     S
O49    H63     0.978   1_455 S
O50    Si34    1.672   .     S
O50    Si35    1.656   .     S
O51    Si35    1.671   .     S
O52    Si35    1.681   .     S
O52    H2      0.978   .     S
O53    Si34    1.682   .     S
Si34   O54     1.657   .     S
Si34   O195    1.666   1_545 S
Si35   O56     1.669   .     S
Si36   O56     1.681   .     S
Si36   O57     1.658   .     S
Si36   O58     1.665   .     S
O54    H36     0.981   1_545 S
O55    Si38    1.658   .     S
O55    Si40    1.673   .     S
O57    Si39    1.666   .     S
O58    Si38    1.671   .     S
O59    Si38    1.682   .     S
O59    H3      0.978   .     S
Si37   O60     1.657   .     S
Si37   O74     1.672   .     S
Si37   O85     1.682   .     S
O60    H4      0.981   .     S
Si38   O65     1.669   .     S
Si39   O61     1.658   .     S
Si39   O86     1.673   .     S
Si39   O92     1.682   .     S
O61    H5      0.981   .     S
O62    Si40    1.682   .     S
Si40   O63     1.658   .     S
Si40   O204    1.666   1_545 S
Si41   O65     1.682   .     S
Si41   O66     1.659   .     S
Si41   O67     1.665   .     S
O63    H39     0.981   1_545 S
O64    Si42    1.674   .     S
O64    Si43    1.657   .     S
O66    Si44    1.667   .     S
O67    Si43    1.672   .     S
O68    Si43    1.682   .     S
O68    H6      0.978   .     S
O69    Si42    1.681   .     S
Si42   O70     1.658   .     S
Si42   O210    1.667   1_545 S
Si43   O71     1.670   .     S
O70    H42     0.981   1_545 S
O71    Si138   1.682   .     S
Si44   O72     1.658   .     S
Si44   O100    1.674   .     S
Si44   O103    1.681   .     S
O72    H7      0.981   .     S
Si45   O75     1.669   .     S
Si45   O84     1.683   .     S
Si45   O312    1.657   1_455 S
Si45   O315    1.673   1_455 S
Si46   O75     1.681   .     S
Si46   O76     1.658   .     S
Si46   O77     1.664   .     S
O74    Si48    1.656   .     S
O76    Si49    1.666   .     S
O77    Si48    1.671   .     S
O78    Si48    1.681   .     S
O78    H8      0.978   .     S
O79    Si47    1.683   .     S
Si47   O80     1.657   .     S
Si47   O314    1.667   1_455 S
Si47   O316    1.673   1_455 S
O80    H9      0.981   .     S
O81    Si49    1.672   .     S
O81    Si87    1.656   .     S
Si48   O87     1.669   .     S
O82    Si49    1.682   .     S
Si49   O83     1.657   .     S
O83    H10     0.981   .     S
O84    H79     0.978   1_455 S
Si50   O87     1.681   .     S
Si50   O88     1.659   .     S
Si50   O89     1.665   .     S
O86    Si51    1.658   .     S
O88    Si53    1.666   .     S
O89    Si51    1.671   .     S
O90    Si51    1.682   .     S
O90    H11     0.978   .     S
O91    Si53    1.673   .     S
O91    Si94    1.657   .     S
Si51   O93     1.669   .     S
Si52   O93     1.682   .     S
Si52   O94     1.660   .     S
Si52   O101    1.665   .     S
O94    Si54    1.667   .     S
O95    Si53    1.682   .     S
Si53   O96     1.658   .     S
O96    H12     0.981   .     S
O97    Si54    1.673   .     S
O97    Si97    1.657   .     S
Si54   O98     1.681   .     S
Si54   O99     1.658   .     S
H13    O99     0.981   .     S
H14    O102    0.978   .     S
H15    C18     1.102   .     S
H16    C5      1.104   .     S
O100   Si55    1.657   .     S
O101   Si55    1.672   .     S
O102   Si55    1.682   .     S
Si55   O104    1.670   .     S
O104   Si151   1.682   .     S
O105   C2      1.351   .     S
O105   C3      1.442   .     S
C1     H17     1.103   .     S
C1     H18     1.100   .     S
C1     C2      1.473   .     S
C1     C4      1.545   .     S
H19    C4      1.105   .     S
C2     O106    1.209   .     D
H20    C3      1.102   .     S
C3     C9      1.453   .     S
C3     H172    1.102   .     S
C4     C5      1.535   .     S
C4     H21     1.104   .     S
C5     H22     1.103   .     S
C5     C18     1.535   .     S
Si56   O107    1.711   .     D
Si56   O108    1.744   .     S
Si56   O112    1.700   .     S
O107   Si57    1.671   .     S
O108   Si137   1.616   1_455 D
Si57   O111    1.691   .     S
Si57   O113    1.661   .     S
Si57   O154    1.663   .     S
O109   Si67    1.699   .     D
O109   Si85    1.657   .     S
O110   Si67    1.744   .     S
O110   Si170   1.616   1_455 S
O111   Si170   1.612   1_455 D
O112   Si86    1.657   .     S
Si58   O113    1.716   .     D
Si58   O119    1.616   .     S
Si58   O120    1.612   .     S
Si59   O114    1.700   .     D
Si59   O115    1.710   .     S
Si59   O116    1.744   .     S
O114   Si88    1.658   .     S
O115   Si60    1.672   .     S
Si60   O118    1.661   .     S
Si60   O120    1.693   .     S
Si60   O169    1.664   .     S
Si61   O118    1.717   .     D
Si61   O121    1.616   .     S
Si61   O122    1.612   .     S
O117   Si72    1.699   .     D
O117   Si91    1.658   .     S
O119   Si72    1.744   .     S
O121   Si75    1.742   .     S
O122   Si63    1.692   .     S
Si62   O123    1.699   .     D
Si62   O124    1.709   .     S
Si62   O125    1.742   .     S
O123   Si95    1.659   .     S
O124   Si63    1.672   .     S
Si63   O127    1.661   .     S
Si63   O181    1.664   .     S
Si64   O127    1.717   .     D
Si64   O130    1.616   .     S
Si64   O131    1.612   .     S
O126   Si75    1.698   .     D
O126   Si96    1.659   .     S
Si65   O128    1.709   .     D
Si65   O129    1.743   .     S
Si65   O318    1.699   .     S
O128   Si66    1.672   .     S
Si66   O131    1.692   .     S
Si66   O187    1.664   .     S
Si66   O320    1.661   .     S
O130   Si79    1.743   .     D
Si67   O132    1.711   .     S
O132   Si69    1.671   .     S
Si68   O133    1.700   .     D
Si68   O134    1.710   .     S
Si68   O136    1.744   .     S
Si69   O135    1.661   .     S
Si69   O137    1.691   .     S
Si69   O191    1.664   .     S
Si70   O135    1.716   .     D
Si70   O139    1.616   .     S
Si70   O143    1.612   .     S
O133   Si102   1.657   .     S
O134   Si2     1.671   1_565 S
O136   Si183   1.616   1_455 S
O137   Si183   1.612   1_455 D
Si71   O138    1.709   .     D
Si71   O139    1.744   .     S
Si71   O141    1.699   .     S
O138   Si6     1.672   1_565 S
Si72   O140    1.710   .     S
O140   Si73    1.672   .     S
Si73   O142    1.661   .     S
Si73   O143    1.693   .     S
Si73   O200    1.664   .     S
Si74   O142    1.717   .     D
Si74   O148    1.616   .     S
Si74   O149    1.612   .     S
O141   Si105   1.658   .     S
Si75   O144    1.708   .     S
O144   Si77    1.672   .     S
Si76   O145    1.699   .     D
Si76   O146    1.709   .     S
Si76   O148    1.742   .     S
Si77   O147    1.661   .     S
Si77   O149    1.692   .     S
Si77   O207    1.664   .     S
O145   Si108   1.658   .     S
O146   Si11    1.672   1_565 S
O147   Si78    1.717   .     D
Si78   O152    1.616   .     S
Si78   O153    1.612   .     S
Si79   O150    1.709   .     S
Si79   O319    1.700   .     S
O150   Si81    1.672   .     S
Si80   O151    1.709   .     D
Si80   O152    1.743   .     S
Si80   O342    1.699   .     S
Si81   O153    1.692   .     S
Si81   O215    1.664   .     S
Si81   O343    1.661   .     S
O151   Si14    1.672   1_565 S
Si82   O157    1.683   .     S
Si82   O159    1.669   .     S
Si82   O316    1.657   1_455 S
Si82   O390    1.672   1_455 S
O154   Si83    1.682   .     S
Si83   O155    1.657   .     S
Si83   O389    1.667   1_455 S
Si83   O393    1.673   1_455 S
Si84   O156    1.669   .     S
Si84   O158    1.683   .     S
Si84   O393    1.657   1_455 S
Si84   O395    1.673   1_455 S
Si85   O156    1.681   .     S
Si85   O164    1.664   .     S
Si85   O190    1.658   .     S
O155   H23     0.981   .     S
O157   H102    0.978   1_455 S
O158   H104    0.977   1_455 S
H24    O165    0.978   .     S
Si86   O159    1.681   .     S
Si86   O160    1.658   .     S
Si86   O161    1.664   .     S
O160   Si89    1.666   .     S
O161   Si87    1.671   .     S
O162   Si87    1.681   .     S
O162   H25     0.977   .     S
O163   Si89    1.672   .     S
O163   Si90    1.656   .     S
O164   Si90    1.671   .     S
O165   Si90    1.681   .     S
Si87   O166    1.669   .     S
Si88   O166    1.681   .     S
Si88   O167    1.658   .     S
Si88   O168    1.665   .     S
O167   Si92    1.666   .     S
O168   Si94    1.672   .     S
O169   Si89    1.682   .     S
Si89   O170    1.657   .     S
Si90   O172    1.669   .     S
Si91   O172    1.681   .     S
Si91   O173    1.665   .     S
Si91   O199    1.659   .     S
O170   H27     0.981   .     S
O171   Si92    1.673   .     S
O171   Si93    1.657   .     S
O173   Si93    1.671   .     S
O174   Si93    1.682   .     S
O174   H28     0.978   .     S
Si92   O181    1.682   .     S
Si92   O182    1.658   .     S
Si93   O175    1.670   .     S
O175   Si96    1.682   .     S
H26    O176    0.978   .     S
O176   Si94    1.682   .     S
Si94   O177    1.669   .     S
Si95   O177    1.682   .     S
Si95   O178    1.659   .     S
Si95   O179    1.665   .     S
O178   Si98    1.667   .     S
O179   Si97    1.672   .     S
O180   Si97    1.682   .     S
O180   H29     0.978   .     S
Si96   O184    1.665   .     S
Si96   O212    1.659   .     S
O182   H30     0.980   .     S
O183   Si98    1.673   .     S
O183   Si99    1.657   .     S
O184   Si99    1.672   .     S
O185   Si99    1.682   .     S
O185   H31     0.978   .     S
Si97   O186    1.670   .     S
O186   Si184   1.682   .     S
O187   Si98    1.681   .     S
Si98   O188    1.658   .     S
Si99   O189    1.670   .     S
O188   H32     0.981   .     S
O189   Si185   1.682   .     S
O190   Si103   1.666   .     S
O191   Si100   1.682   .     S
Si100  O192    1.657   .     S
Si100  O419    1.667   1_455 S
Si100  O422    1.674   1_455 S
Si101  O194    1.669   .     S
Si101  O198    1.683   .     S
Si101  O422    1.657   1_455 S
Si101  O424    1.672   1_455 S
Si102  O194    1.681   .     S
Si102  O195    1.658   .     S
Si102  O196    1.664   .     S
O192   H34     0.981   .     S
O193   Si103   1.672   .     S
O193   Si104   1.656   .     S
O195   Si34    1.666   1_565 S
O196   Si104   1.671   .     S
O197   Si104   1.681   .     S
O197   H35     0.978   .     S
Si103  O200    1.682   .     S
Si103  O201    1.657   .     S
Si104  O203    1.669   .     S
O198   H122    0.978   1_455 S
H33    O45     0.981   1_565 S
H36    O54     0.981   1_565 S
O199   Si106   1.666   .     S
Si105  O203    1.681   .     S
Si105  O204    1.658   .     S
Si105  O205    1.665   .     S
O201   H37     0.981   .     S
O202   Si106   1.674   .     S
O202   Si107   1.658   .     S
O204   Si40    1.666   1_565 S
O205   Si107   1.672   .     S
O206   Si107   1.682   .     S
O206   H38     0.978   .     S
O207   Si106   1.682   .     S
Si106  O208    1.658   .     S
Si107  O209    1.669   .     S
Si108  O209    1.682   .     S
Si108  O210    1.659   .     S
Si108  O211    1.665   .     S
O208   H40     0.981   .     S
O210   Si42    1.667   1_565 S
O211   Si110   1.672   .     S
H39    O63     0.981   1_565 S
H41    O214    0.978   .     S
O212   Si109   1.667   .     S
O213   Si109   1.673   .     S
O213   Si110   1.657   .     S
O214   Si110   1.682   .     S
O215   Si109   1.682   .     S
Si109  O216    1.658   .     S
Si110  O217    1.670   .     S
O216   H43     0.981   .     S
O217   Si201   1.682   .     S
H42    O70     0.981   1_565 S
H44    C6      1.102   .     S
H45    C8      1.103   .     S
C6     H46     1.102   .     S
C6     H47     1.101   .     S
C6     C7      1.531   .     S
H48    C7      1.105   .     S
C7     C8      1.535   .     S
C7     H147    1.104   1_455 S
C8     C11     1.535   .     S
C8     H148    1.105   1_455 S
H49    C11     1.104   .     S
H50    C10     1.104   .     S
C9     H51     1.105   .     S
C9     H52     1.105   .     S
C9     C10     1.529   .     S
C10    C13     1.533   .     S
C10    H128    1.105   .     S
C11    C12     1.533   .     S
C11    H149    1.104   1_455 S
C12    H53     1.105   .     S
C12    H54     1.105   .     S
C12    C58     1.534   1_455 S
C13    H55     1.104   .     S
C13    H56     1.105   .     S
C13    C55     1.533   .     S
H57    C59     1.105   1_455 S
Si111  O219    1.715   .     D
Si111  O221    1.616   .     S
Si111  O224    1.612   .     S
O218   Si138   1.658   .     S
O220   Si112   1.672   .     S
O220   Si113   1.710   .     D
O221   Si113   1.743   .     S
Si112  O241    1.692   .     S
Si112  O244    1.661   .     S
Si112  O291    1.664   .     S
Si113  O222    1.700   .     S
Si114  O223    1.661   .     S
Si114  O224    1.692   .     S
Si114  O264    1.664   .     S
Si114  O346    1.672   1_545 S
Si115  O223    1.718   .     D
Si115  O227    1.616   .     S
Si115  O228    1.612   .     S
O222   Si142   1.658   .     S
Si116  O225    1.700   .     D
Si116  O226    1.709   .     S
Si116  O227    1.742   .     S
Si117  O228    1.691   .     S
Si117  O229    1.661   .     S
Si117  O271    1.664   .     S
Si117  O352    1.671   1_545 S
O225   Si145   1.658   .     S
O226   Si118   1.671   .     S
Si118  O247    1.660   .     S
Si118  O249    1.691   .     S
Si118  O300    1.664   .     S
Si119  O229    1.717   .     D
Si119  O233    1.616   .     S
Si119  O234    1.612   .     S
Si120  O230    1.699   .     D
Si120  O231    1.710   .     S
Si120  O233    1.743   .     S
Si121  O232    1.661   .     S
Si121  O234    1.691   .     S
Si121  O279    1.664   .     S
Si121  O356    1.671   1_545 S
Si122  O4      1.612   1_655 D
Si122  O3      1.616   1_655 S
Si122  O232    1.716   .     S
O230   Si149   1.657   .     S
O231   Si123   1.671   .     S
Si123  O256    1.661   .     S
Si123  O257    1.691   .     S
Si123  O311    1.664   .     S
Si124  O236    1.715   .     D
Si124  O240    1.616   .     S
Si124  O241    1.612   .     S
O235   Si151   1.658   .     S
Si125  O237    1.715   .     D
Si125  O243    1.612   .     S
Si125  O324    1.616   .     S
Si126  O238    1.701   .     D
Si126  O239    1.710   .     S
Si126  O240    1.743   .     S
O238   Si153   1.658   .     S
O239   Si127   1.672   .     S
Si127  O242    1.660   .     S
Si127  O243    1.692   .     S
Si127  O294    1.664   .     S
Si128  O242    1.718   .     D
Si128  O251    1.612   .     S
Si128  O329    1.616   .     S
Si129  O244    1.718   .     D
Si129  O248    1.616   .     S
Si129  O249    1.612   .     S
Si130  O245    1.700   .     D
Si130  O246    1.709   .     S
Si130  O248    1.742   .     S
Si131  O247    1.717   .     D
Si131  O253    1.616   .     S
Si131  O257    1.612   .     S
O245   Si156   1.658   .     S
O246   Si132   1.671   .     S
Si132  O250    1.660   .     S
Si132  O251    1.691   .     S
Si132  O306    1.664   .     S
Si133  O250    1.717   .     D
Si133  O254    1.612   .     S
Si133  O337    1.616   .     S
O252   Si134   1.671   .     S
O252   Si135   1.710   .     D
O253   Si135   1.743   .     S
Si134  O254    1.692   .     S
Si134  O258    1.661   .     S
Si134  O309    1.664   .     S
Si135  O255    1.700   .     S
Si136  O22     1.616   1_655 D
Si136  O23     1.612   1_655 S
Si136  O256    1.716   .     S
O255   Si160   1.658   .     S
Si137  O108    1.616   1_655 D
Si137  O25     1.612   1_655 S
Si137  O258    1.716   .     S
Si138  O260    1.659   .     S
Si138  O261    1.665   .     S
O259   Si139   1.657   .     S
O259   Si141   1.673   .     S
O260   Si140   1.667   .     S
O261   Si139   1.672   .     S
O262   Si139   1.682   .     S
O262   H58     0.978   .     S
Si139  O267    1.670   .     S
Si140  O263    1.657   .     S
Si140  O286    1.673   .     S
Si140  O291    1.681   .     S
O263   H59     0.981   .     S
O264   Si141   1.681   .     S
Si141  O265    1.657   .     S
Si141  O399    1.667   1_545 S
Si142  O267    1.682   .     S
Si142  O268    1.660   .     S
Si142  O269    1.666   .     S
O265   H109    0.981   1_545 S
O266   Si143   1.674   .     S
O266   Si144   1.658   .     S
O268   Si146   1.668   .     S
O269   Si144   1.672   .     S
O270   Si144   1.683   .     S
O270   H60     0.979   .     S
O271   Si143   1.683   .     S
Si143  O272    1.657   .     S
Si143  O405    1.667   1_545 S
Si144  O273    1.670   .     S
Si145  O273    1.681   .     S
Si145  O274    1.659   .     S
Si145  O277    1.665   .     S
O272   H112    0.981   1_545 S
O274   Si150   1.667   .     S
Si146  O275    1.657   .     S
Si146  O297    1.674   .     S
Si146  O300    1.683   .     S
O275   H61     0.981   .     S
O276   Si147   1.673   .     S
O276   Si148   1.657   .     S
O277   Si148   1.672   .     S
O278   Si148   1.682   .     S
O278   H62     0.978   .     S
O279   Si147   1.683   .     S
Si147  O280    1.657   .     S
Si147  O415    1.668   1_545 S
Si148  O282    1.669   .     S
Si149  O282    1.681   .     S
Si149  O283    1.659   .     S
Si149  O284    1.665   .     S
O280   H115    0.981   1_545 S
O281   Si30    1.673   1_655 S
O281   Si31    1.657   1_655 S
O283   Si33    1.667   1_655 S
O284   Si31    1.672   1_655 S
Si150  O285    1.657   .     S
Si150  O301    1.673   .     S
Si150  O311    1.683   .     S
O285   H64     0.981   .     S
H63    O49     0.978   1_655 S
Si151  O287    1.659   .     S
Si151  O288    1.665   .     S
O286   Si152   1.657   .     S
O287   Si154   1.667   .     S
O288   Si152   1.672   .     S
O289   Si152   1.682   .     S
O289   H65     0.978   .     S
O290   Si154   1.673   .     S
O290   Si188   1.657   .     S
Si152  O292    1.670   .     S
Si153  O292    1.682   .     S
Si153  O293    1.660   .     S
Si153  O298    1.666   .     S
O293   Si157   1.668   .     S
O294   Si154   1.681   .     S
Si154  O295    1.657   .     S
O295   H66     0.981   .     S
O296   Si157   1.674   .     S
O296   Si191   1.657   .     S
H67    C14     1.103   .     S
H68    C15     1.104   .     S
C14    H70     1.106   .     S
C14    C15     1.533   .     S
C14    C18     1.531   .     S
H69    C15     1.104   .     S
C15    C17     1.536   .     S
H71    C16     1.104   .     S
H72    C16     1.106   .     S
C16    C17     1.533   .     S
C16    C20     1.533   .     S
C17    H80     1.105   .     S
C17    H83     1.103   .     S
C18    H84     1.104   .     S
H73    C19     1.102   .     S
O297   Si155   1.658   .     S
O298   Si155   1.673   .     S
O299   Si155   1.684   .     S
O299   H74     0.979   .     S
Si155  O302    1.669   .     S
Si156  O302    1.682   .     S
Si156  O303    1.659   .     S
Si156  O304    1.665   .     S
O301   Si158   1.657   .     S
O303   Si159   1.668   .     S
O304   Si158   1.672   .     S
O305   Si158   1.682   .     S
O305   H75     0.978   .     S
O306   Si157   1.683   .     S
Si157  O307    1.657   .     S
O307   H76     0.982   .     S
O308   Si159   1.673   .     S
O308   Si196   1.657   .     S
Si158  O313    1.670   .     S
O309   Si159   1.683   .     S
Si159  O310    1.657   .     S
O310   H77     0.981   .     S
H78    C19     1.101   .     S
C19    C20     1.529   .     S
C19    H85     1.101   .     S
Si160  O313    1.681   .     S
Si160  O314    1.659   .     S
Si160  O315    1.665   .     S
O312   Si45    1.657   1_655 S
O312   Si33    1.673   1_655 S
O314   Si47    1.667   1_655 S
O315   Si45    1.673   1_655 S
O316   Si82    1.657   1_655 S
O316   Si47    1.673   1_655 S
H79    O84     0.978   1_655 S
H81    C20     1.103   .     S
C20    H82     1.104   .     S
H86    C22     1.107   .     S
H87    C21     1.104   .     S
C21    H88     1.101   .     S
C21    C22     1.542   .     S
C21    N4      1.465   .     S
H89    C22     1.104   .     S
C22    N5      1.472   .     S
C23    O317    1.223   .     D
C23    C56     1.456   .     S
C23    N4      1.337   .     S
O318   Si184   1.658   .     S
Si161  O320    1.715   .     D
Si161  O321    1.616   .     S
Si161  O327    1.612   .     S
O319   Si185   1.658   .     S
O321   Si172   1.743   .     S
Si162  O322    1.701   .     D
Si162  O323    1.710   .     S
Si162  O324    1.743   .     S
O322   Si189   1.658   .     S
O323   Si163   1.672   .     S
Si163  O326    1.661   .     S
Si163  O327    1.692   .     S
Si163  O372    1.664   .     S
Si164  O326    1.718   .     D
Si164  O332    1.616   .     S
Si164  O333    1.612   .     S
O325   Si172   1.700   .     D
O325   Si190   1.657   .     S
Si165  O328    1.710   .     D
Si165  O329    1.742   .     S
Si165  O334    1.699   .     S
O328   Si166   1.671   .     S
Si166  O331    1.660   .     S
Si166  O333    1.692   .     S
Si166  O379    1.664   .     S
O330   Si176   1.700   .     D
O330   Si194   1.657   .     S
O331   Si167   1.717   .     D
O332   Si176   1.741   .     S
O334   Si195   1.658   .     S
Si167  O340    1.616   .     S
Si167  O341    1.612   .     S
Si168  O335    1.699   .     D
Si168  O336    1.710   .     S
Si168  O337    1.743   .     S
O335   Si197   1.658   .     S
O336   Si169   1.671   .     S
Si169  O339    1.661   .     S
Si169  O341    1.691   .     S
Si169  O391    1.664   .     S
Si170  O111    1.612   1_655 D
Si170  O110    1.616   1_655 S
Si170  O339    1.716   .     S
O338   Si181   1.700   .     D
O338   Si200   1.658   .     S
O340   Si181   1.743   .     S
Si171  O343    1.715   .     D
Si171  O347    1.616   .     S
Si171  O348    1.612   .     S
O342   Si201   1.658   .     S
Si172  O344    1.710   .     S
O344   Si174   1.672   .     S
Si173  O345    1.700   .     D
Si173  O346    1.710   .     S
Si173  O347    1.743   .     S
Si174  O348    1.692   .     S
Si174  O349    1.661   .     S
Si174  O402    1.665   .     S
O345   Si204   1.658   .     S
O346   Si114   1.672   1_565 S
Si175  O349    1.718   .     D
Si175  O354    1.616   .     S
Si175  O355    1.612   .     S
Si176  O350    1.710   .     S
O350   Si178   1.671   .     S
Si177  O351    1.700   .     D
Si177  O352    1.710   .     S
Si177  O354    1.742   .     S
Si178  O353    1.660   .     S
Si178  O355    1.692   .     S
Si178  O411    1.664   .     S
Si179  O353    1.717   .     D
Si179  O357    1.616   .     S
Si179  O358    1.612   .     S
O351   Si207   1.658   .     S
O352   Si117   1.671   1_565 S
Si180  O356    1.710   .     D
Si180  O357    1.743   .     S
Si180  O360    1.699   .     S
O356   Si121   1.671   1_565 S
O358   Si182   1.691   .     S
Si181  O359    1.710   .     S
O359   Si182   1.671   .     S
Si182  O361    1.661   .     S
Si182  O420    1.664   .     S
Si183  O137    1.612   1_655 D
Si183  O136    1.616   1_655 S
Si183  O361    1.716   .     S
O360   Si210   1.658   .     S
Si184  O362    1.659   .     S
Si184  O366    1.665   .     S
O362   Si186   1.667   .     S
Si185  O364    1.665   .     S
Si185  O397    1.659   .     S
O363   Si186   1.673   .     S
O363   Si187   1.657   .     S
O364   Si187   1.672   .     S
O365   Si187   1.682   .     S
O365   H91     0.978   .     S
Si186  O372    1.681   .     S
Si186  O373    1.657   .     S
Si187  O375    1.670   .     S
H90    O367    0.978   .     S
O366   Si188   1.671   .     S
O367   Si188   1.682   .     S
Si188  O368    1.670   .     S
Si189  O368    1.682   .     S
Si189  O369    1.659   .     S
Si189  O370    1.666   .     S
O369   Si192   1.667   .     S
O370   Si191   1.673   .     S
O371   Si191   1.684   .     S
O371   H92     0.979   .     S
Si190  O375    1.682   .     S
Si190  O376    1.666   .     S
Si190  O406    1.659   .     S
O373   H93     0.981   .     S
O374   Si192   1.674   .     S
O374   Si193   1.657   .     S
O376   Si193   1.673   .     S
O377   Si193   1.684   .     S
O377   H94     0.979   .     S
Si191  O378    1.670   .     S
O378   Si195   1.682   .     S
O379   Si192   1.683   .     S
Si192  O380    1.657   .     S
Si193  O381    1.670   .     S
Si194  O381    1.682   .     S
Si194  O382    1.665   .     S
Si194  O410    1.659   .     S
O380   H95     0.982   .     S
O382   Si199   1.672   .     S
H96    O387    0.978   .     S
H97    C24     1.105   .     S
H98    C26     1.102   .     S
C24    C25     1.538   .     S
C24    H100    1.104   .     S
C24    C40     1.536   .     S
C25    H99     1.104   .     S
C25    C26     1.462   .     S
C25    H141    1.104   .     S
Si195  O383    1.659   .     S
Si195  O384    1.665   .     S
O383   Si198   1.667   .     S
O384   Si196   1.671   .     S
O385   Si196   1.682   .     S
O385   H101    0.978   .     S
O386   Si198   1.673   .     S
O386   Si199   1.657   .     S
O387   Si199   1.682   .     S
Si196  O388    1.669   .     S
Si197  O388    1.681   .     S
Si197  O389    1.659   .     S
Si197  O390    1.665   .     S
O389   Si83    1.667   1_655 S
O390   Si82    1.672   1_655 S
O391   Si198   1.683   .     S
Si198  O392    1.657   .     S
Si199  O394    1.669   .     S
Si200  O394    1.681   .     S
Si200  O395    1.665   .     S
Si200  O419    1.659   .     S
O392   H103    0.981   .     S
O393   Si83    1.673   1_655 S
O393   Si84    1.657   1_655 S
O395   Si84    1.673   1_655 S
H102   O157    0.978   1_655 S
H104   O158    0.977   1_655 S
C26    O396    1.440   .     S
C26    H105    1.101   .     S
O396   C27     1.355   .     S
H106   C28     1.102   .     S
H107   C28     1.104   .     S
C27    C28     1.538   .     S
C27    O426    1.206   .     D
C28    C44     1.526   .     S
O397   Si202   1.666   .     S
Si201  O399    1.660   .     S
Si201  O400    1.665   .     S
O398   Si202   1.673   .     S
O398   Si203   1.657   .     S
O399   Si141   1.667   1_565 S
O400   Si203   1.672   .     S
O401   Si203   1.682   .     S
O401   H108    0.978   .     S
O402   Si202   1.681   .     S
Si202  O403    1.657   .     S
Si203  O404    1.670   .     S
Si204  O404    1.682   .     S
Si204  O405    1.660   .     S
Si204  O408    1.666   .     S
O403   H110    0.981   .     S
O405   Si143   1.667   1_565 S
H109   O265    0.981   1_565 S
H111   O409    0.979   .     S
O406   Si205   1.668   .     S
O407   Si205   1.674   .     S
O407   Si206   1.658   .     S
O408   Si206   1.673   .     S
O409   Si206   1.684   .     S
O410   Si208   1.668   .     S
O411   Si205   1.683   .     S
Si205  O412    1.657   .     S
Si206  O414    1.670   .     S
Si207  O414    1.682   .     S
Si207  O415    1.659   .     S
Si207  O416    1.665   .     S
O412   H113    0.981   .     S
O413   Si208   1.673   .     S
O413   Si209   1.657   .     S
O415   Si147   1.668   1_565 S
O416   Si209   1.672   .     S
O417   Si209   1.682   .     S
O417   H114    0.978   .     S
Si208  O420    1.682   .     S
Si208  O421    1.657   .     S
Si209  O418    1.670   .     S
O418   Si210   1.681   .     S
H112   O272    0.981   1_565 S
H115   O280    0.981   1_565 S
H116   C29     1.102   .     S
H117   C30     1.104   .     S
H118   C30     1.104   .     S
C29    C30     1.528   .     S
C29    H119    1.102   .     S
C29    H150    1.102   .     S
C30    C32     1.532   .     S
H120   C31     1.105   .     S
H121   C31     1.105   .     S
C31    C32     1.535   .     S
C31    C33     1.537   .     S
C32    H155    1.104   .     S
C32    H156    1.103   .     S
C33    H124    1.104   .     S
C33    C47     1.535   .     S
C33    H170    1.103   .     S
H122   O198    0.978   1_655 S
O419   Si100   1.667   1_655 S
Si210  O423    1.659   .     S
Si210  O424    1.665   .     S
O421   H123    0.981   .     S
O422   Si101   1.657   1_655 S
O422   Si100   1.674   1_655 S
O423   Si30    1.667   1_665 S
O424   Si101   1.672   1_655 S
H125   C35     1.106   .     S
H126   C34     1.107   .     S
H127   N1      1.004   .     S
C34    N1      1.469   .     S
C34    H175    1.103   .     S
C34    C57     1.541   .     S
N1     C35     1.480   .     S
C35    H130    1.100   .     S
C35    C36     1.552   .     S
H129   C36     1.104   .     S
N2     H133    1.009   .     S
N2     C43     1.334   .     S
N2     C57     1.457   .     S
C36    H132    1.099   .     S
C36    N3      1.479   .     S
H131   C38     1.102   .     S
C37    C38     1.542   .     S
C37    N3      1.483   .     S
C37    H134    1.105   .     S
C37    H182    1.103   .     S
C38    H135    1.106   .     S
C38    N5      1.466   .     S
N3     C39     1.352   .     S
C39    C41     1.553   .     S
C39    O425    1.219   .     D
H136   C41     1.101   .     S
H137   C40     1.105   .     S
C40    C42     1.534   .     S
C40    H139    1.105   .     S
C41    C42     1.535   .     S
C41    H138    1.102   .     S
C42    H140    1.106   .     S
C42    H142    1.105   .     S
H143   C47     1.104   .     S
H144   C45     1.104   .     S
C43    O428    1.215   .     D
C43    C45     1.538   .     S
H145   C44     1.103   .     S
C44    H146    1.105   .     S
C44    C54     1.532   .     S
H147   C7      1.104   1_655 S
H148   C8      1.105   1_655 S
H149   C11     1.104   1_655 S
O427   C52     1.206   .     D
H151   C46     1.104   .     S
H152   C46     1.105   .     S
C45    C46     1.531   .     S
C45    H153    1.104   .     S
C46    C49     1.538   .     S
C47    H154    1.105   .     S
C47    C53     1.535   .     S
C48    C51     1.466   .     S
C48    H163    1.101   .     S
C48    O429    1.441   .     S
C48    H171    1.104   .     S
H157   C49     1.105   .     S
H158   C49     1.105   .     S
C49    C50     1.538   .     S
H159   C51     1.104   .     S
C50    H160    1.104   .     S
C50    C51     1.540   .     S
C50    H162    1.106   .     S
C51    H161    1.105   .     S
H164   C54     1.104   .     S
H165   C60     1.104   .     S
C52    O429    1.361   .     S
C52    C60     1.540   .     S
C53    H167    1.105   .     S
C53    H169    1.106   .     S
C53    C54     1.534   .     S
H166   C58     1.104   .     S
H168   C54     1.104   .     S
H173   C55     1.104   .     S
H174   C56     1.104   .     S
C55    C56     1.539   .     S
C55    H176    1.106   .     S
C56    H177    1.104   .     S
H178   N4      1.004   .     S
H179   C57     1.102   .     S
H180   C57     1.102   .     S
N5     H181    1.009   .     S
H183   C61     1.104   .     S
H184   C58     1.104   .     S
H185   C59     1.102   .     S
H186   C61     1.104   .     S
C58    C12     1.534   1_655 S
C58    C59     1.532   .     S
C59    H57     1.105   1_655 S
C59    C61     1.532   .     S
C60    H187    1.103   .     S
C60    C62     1.535   .     S
C61    C62     1.537   .     S
H188   C62     1.104   .     S
C62    H189    1.105   .     S
